CatS_253
                    3D
 Schrodinger Suite 2023-3.
 90 94  0  0  1  0            999 V2000
  -11.0392    9.5942   -9.4748 C   0  0  0  0  0  0
   -9.5484    8.9267  -10.3213 S   0  0  0  0  0  0
   -9.3405    7.5485   -9.8849 O   0  0  0  0  0  0
   -9.6663    9.2283  -11.7590 O   0  0  0  0  0  0
   -8.2545    9.8753   -9.6726 N   0  0  1  0  0  0
   -8.0107   11.2628  -10.1500 C   0  0  0  0  0  0
   -6.4954   11.6155  -10.1333 C   0  0  0  0  0  0
   -5.8008   10.9414   -8.9792 C   0  0  0  0  0  0
   -6.3917   10.0425   -8.1367 C   0  0  0  0  0  0
   -5.3523    9.6325   -7.2556 C   0  0  0  0  0  0
   -4.2003   10.2217   -7.5653 N   0  0  0  0  0  0
   -4.4685   11.0037   -8.6401 N   0  0  0  0  0  0
   -3.3898   11.7118   -9.3083 C   0  0  0  0  0  0
   -3.1383   13.1423   -8.7915 C   0  0  2  0  0  0
   -2.6214   13.1980   -7.3312 C   0  0  0  0  0  0
   -2.4288   14.5842   -6.8007 N   0  3  0  0  0  0
   -2.0777   14.5652   -5.3428 C   0  0  0  0  0  0
   -1.9945   15.9924   -4.7682 C   0  0  0  0  0  0
   -0.9790   16.8440   -5.5453 C   0  0  0  0  0  0
   -1.3829   16.8574   -7.0279 C   0  0  0  0  0  0
   -1.4757   15.4296   -7.6008 C   0  0  0  0  0  0
   -4.3160   13.9140   -8.9144 O   0  0  0  0  0  0
   -5.4396    8.6719   -6.1479 C   0  0  0  0  0  0
   -4.4084    7.7440   -5.8957 C   0  0  0  0  0  0
   -4.5598    6.7686   -4.8925 C   0  0  0  0  0  0
   -5.7367    6.7044   -4.1182 C   0  0  0  0  0  0
   -6.7460    7.6757   -4.3326 C   0  0  0  0  0  0
   -6.5943    8.6392   -5.3455 C   0  0  0  0  0  0
   -8.2164    7.7068   -3.3572 S   0  0  0  0  0  0
   -7.9617    9.0841   -2.2108 C   0  0  0  0  0  0
   -9.0065   10.1877   -2.4197 C   0  0  0  0  0  0
   -8.9788   11.2371   -1.3757 N   0  3  1  0  0  0
   -7.7833   12.1092   -1.4895 C   0  0  0  0  0  0
   -7.7590   13.1624   -0.3671 C   0  0  0  0  0  0
   -9.0289   14.0304   -0.3625 C   0  0  2  0  0  0
  -10.2527   13.0932   -0.2890 C   0  0  0  0  0  0
  -10.2347   12.0259   -1.3994 C   0  0  0  0  0  0
   -9.0683   14.9724   -1.5779 C   0  0  0  0  0  0
   -9.9851   14.9300   -2.3904 O   0  0  0  0  0  0
   -8.0714   15.8450   -1.7075 N   0  0  0  0  0  0
   -5.9210    5.5752   -3.1081 C   0  0  0  0  0  0
   -4.8888    4.7381   -3.1147 F   0  0  0  0  0  0
   -6.0577    6.0541   -1.8721 F   0  0  0  0  0  0
   -7.0023    4.8679   -3.4284 F   0  0  0  0  0  0
   -7.8272    9.6269   -8.2794 C   0  0  0  0  0  0
  -10.9014    9.5212   -8.3967 H   0  0  0  0  0  0
  -11.1903   10.6339   -9.7522 H   0  0  0  0  0  0
  -11.9119    9.0107   -9.7598 H   0  0  0  0  0  0
   -8.5561   11.9418   -9.4936 H   0  0  0  0  0  0
   -8.4169   11.3973  -11.1536 H   0  0  0  0  0  0
   -6.3702   12.6980  -10.0938 H   0  0  0  0  0  0
   -6.0407   11.2845  -11.0699 H   0  0  0  0  0  0
   -3.6153   11.7383  -10.3723 H   0  0  0  0  0  0
   -2.4808   11.1219   -9.2202 H   0  0  0  0  0  0
   -2.4099   13.5909   -9.4607 H   0  0  0  0  0  0
   -1.6787   12.6494   -7.2552 H   0  0  0  0  0  0
   -3.3266   12.6708   -6.6832 H   0  0  0  0  0  0
   -1.1244   14.0483   -5.1968 H   0  0  0  0  0  0
   -2.8268   13.9980   -4.7838 H   0  0  0  0  0  0
   -1.7219   15.9602   -3.7150 H   0  0  0  0  0  0
   -2.9781   16.4663   -4.8149 H   0  0  0  0  0  0
   -0.9530   17.8597   -5.1415 H   0  0  0  0  0  0
    0.0290   16.4372   -5.4232 H   0  0  0  0  0  0
   -2.3503   17.3582   -7.1377 H   0  0  0  0  0  0
   -0.6708   17.4466   -7.6048 H   0  0  0  0  0  0
   -0.4833   14.9689   -7.6014 H   0  0  0  0  0  0
   -1.7819   15.5113   -8.6445 H   0  0  0  0  0  0
   -4.1043   14.8362   -8.9042 H   0  0  0  0  0  0
   -3.5103    7.7545   -6.4924 H   0  0  0  0  0  0
   -3.7654    6.0526   -4.7410 H   0  0  0  0  0  0
   -7.3840    9.3549   -5.5080 H   0  0  0  0  0  0
   -7.9946    8.6895   -1.1946 H   0  0  0  0  0  0
   -6.9558    9.4690   -2.3797 H   0  0  0  0  0  0
   -8.8746   10.6537   -3.3960 H   0  0  0  0  0  0
   -9.9947    9.7297   -2.4243 H   0  0  0  0  0  0
   -6.8758   11.5097   -1.4354 H   0  0  0  0  0  0
   -7.7758   12.5947   -2.4674 H   0  0  0  0  0  0
   -7.6695   12.6744    0.6013 H   0  0  0  0  0  0
   -6.8702   13.7837   -0.4715 H   0  0  0  0  0  0
   -9.0203   14.6593    0.5289 H   0  0  0  0  0  0
  -11.1726   13.6755   -0.3541 H   0  0  0  0  0  0
  -10.2812   12.6030    0.6862 H   0  0  0  0  0  0
  -10.3542   12.4862   -2.3814 H   0  0  0  0  0  0
  -11.0891   11.3618   -1.2681 H   0  0  0  0  0  0
   -7.3262   15.8713   -1.0194 H   0  0  0  0  0  0
   -8.0709   16.4732   -2.4932 H   0  0  0  0  0  0
   -7.9647    8.5702   -8.0310 H   0  0  0  0  0  0
   -8.4803   10.1906   -7.6079 H   0  0  0  0  0  0
   -3.3420   15.0256   -6.8738 H   0  0  0  0  0  0
   -8.9382   10.7883   -0.4704 H   0  0  0  0  0  0
  1  2  1  0  0  0
  1 46  1  0  0  0
  1 47  1  0  0  0
  1 48  1  0  0  0
  2  3  2  0  0  0
  2  4  2  0  0  0
  2  5  1  0  0  0
  5 45  1  0  0  0
  5  6  1  0  0  0
  6  7  1  0  0  0
  6 49  1  0  0  0
  6 50  1  0  0  0
  7  8  1  0  0  0
  7 51  1  0  0  0
  7 52  1  0  0  0
  8 12  1  0  0  0
  8  9  2  0  0  0
  9 10  1  0  0  0
  9 45  1  0  0  0
 10 11  2  0  0  0
 10 23  1  0  0  0
 11 12  1  0  0  0
 12 13  1  0  0  0
 13 14  1  0  0  0
 13 53  1  0  0  0
 13 54  1  0  0  0
 14 15  1  0  0  0
 14 22  1  0  0  0
 14 55  1  0  0  0
 15 16  1  0  0  0
 15 56  1  0  0  0
 15 57  1  0  0  0
 16 21  1  0  0  0
 16 17  1  0  0  0
 16 89  1  0  0  0
 17 18  1  0  0  0
 17 58  1  0  0  0
 17 59  1  0  0  0
 18 19  1  0  0  0
 18 60  1  0  0  0
 18 61  1  0  0  0
 19 20  1  0  0  0
 19 62  1  0  0  0
 19 63  1  0  0  0
 20 21  1  0  0  0
 20 64  1  0  0  0
 20 65  1  0  0  0
 21 66  1  0  0  0
 21 67  1  0  0  0
 22 68  1  0  0  0
 23 28  1  0  0  0
 23 24  2  0  0  0
 24 25  1  0  0  0
 24 69  1  0  0  0
 25 26  2  0  0  0
 25 70  1  0  0  0
 26 27  1  0  0  0
 26 41  1  0  0  0
 27 28  2  0  0  0
 27 29  1  0  0  0
 28 71  1  0  0  0
 29 30  1  0  0  0
 30 31  1  0  0  0
 30 72  1  0  0  0
 30 73  1  0  0  0
 31 32  1  0  0  0
 31 74  1  0  0  0
 31 75  1  0  0  0
 32 37  1  0  0  0
 32 33  1  0  0  0
 32 90  1  0  0  0
 33 34  1  0  0  0
 33 76  1  0  0  0
 33 77  1  0  0  0
 34 35  1  0  0  0
 34 78  1  0  0  0
 34 79  1  0  0  0
 35 36  1  0  0  0
 35 38  1  0  0  0
 35 80  1  0  0  0
 36 37  1  0  0  0
 36 81  1  0  0  0
 36 82  1  0  0  0
 37 83  1  0  0  0
 37 84  1  0  0  0
 38 39  2  0  0  0
 38 40  1  0  0  0
 40 85  1  0  0  0
 40 86  1  0  0  0
 41 42  1  0  0  0
 41 43  1  0  0  0
 41 44  1  0  0  0
 45 87  1  0  0  0
 45 88  1  0  0  0
M  CHG  2  16   1  32   1
M  END
> <i_epik_Tot_Q>
2

> <i_epik_Tot_abs_Q>
2

> <i_f3d_flags>
0

> <i_i_glide_confnum>
3920

> <i_i_glide_lignum>
40

> <i_i_glide_posenum>
300

> <i_i_glide_rotatable_bonds>
13

> <i_lp_mmshare_version>
63125

> <i_m_Source_File_Index>
38

> <i_m_source_file_index>
38

> <b_lp_Chiralities_Consistent>
1

> <b_m_subgroup_collapsed>
0

> <r_canvas_Affinity>
0.52

> <r_epik_Charging_Adjusted_Penalty>
0.0970090544919624

> <r_epik_Ionization_Penalty>
  0.0519

> <r_epik_Ionization_Penalty_Charging>
  0.0518

> <r_epik_Ionization_Penalty_Neutral>
  0.0001

> <r_epik_State_Penalty>
  0.0452

> <r_i_docking_score>
-8.79034588244923

> <r_i_glide_ecoul>
-10.4407796859741

> <r_i_glide_eff_state_penalty>
0.0452

> <r_i_glide_einternal>
5.8947639465332

> <r_i_glide_emodel>
-87.5045712950028

> <r_i_glide_energy>
-57.9535398483276

> <r_i_glide_erotb>
0.398408196754989

> <r_i_glide_esite>
-0.0979980264070741

> <r_i_glide_evdw>
-47.5127601623535

> <r_i_glide_gscore>
-8.83554588244923

> <r_i_glide_hbond>
-0.32

> <r_i_glide_ligand_efficiency>
-0.195341019609983

> <r_i_glide_ligand_efficiency_ln>
-1.82878367290341

> <r_i_glide_ligand_efficiency_sa>
-0.694807163861378

> <r_i_glide_lipo>
-3.64923443532528

> <r_i_glide_metal>
0

> <r_i_glide_rewards>
-1.22496665645807

> <r_i_glide_rmsd>
0.0404719506090973

> <r_lp_Energy>
56.279573

> <r_lp_tautomer_probability>
1

> <s_epik_cmdline>
J2VwaWtfcHl0aG9uJywgJy1waHQnLCAnMC4wJywgJy1waCcsICc3LjAnLCAnLXRuJywgJzgnLCAnLW1hJywgJzUwMCcsICctaW1hZScsICc8aW5maWxlLm1hZT4nLCAnLW9tYWUnLCAnPG91dGZpbGUubWFlPic=

> <s_epik_input>
W0NIMl0xW0NIMl1bQ0gyXVtDSDJdW0NIMl1OMVtDSDJdW0NASF0oW09IXSlbQ0gyXW4ybmMoYyhjMjMpW0NIMl1OKFMoPU8pKD1PKVtDSDNdKVtDSDJdW0NIMl0zKS1jNFtjSF1bY0hdYyhDKEYpKEYpRiljKFtjSF00KVNbQ0gyXVtDSDJdTjVbQ0gyXVtDSDJdW0NIXShbQ0gyXVtDSDJdNSlDKD1PKVtOSDJd

> <s_glide_core_atoms_lig>
28 27 26 41 42 43 44 25 24 23 10 11 12 8 9 7 6 5 45 2 3 4 1 13 14 22 15 16 17 18 19 20 21

> <s_glide_core_atoms_ref>
9 8 13 14 34 35 36 12 11 10 16 39 38 18 17 19 20 40 21 45 42 43 22 23 24 44 25 41 26 27 28 29 30

> <s_glide_core_constrain_type>
snapped_core_restrain

> <s_glide_core_smarts>
c1cc(C(F)(F)F)ccc1-c2nn(c(c23)CCN(C3)S(=O)(=O)C)CC(O)C[N]4CCCCC4

> <s_i_glide_gridfile>
glide-grid_1_zrqq

> <s_lp_Force_Field>
S-OPLS

> <s_lp_Variant>
CatS_253-1

> <s_m_Source_File>
glide-dock_SP_1_zrqq_gc4FEset_pv.maegz

> <s_m_Source_Path>
/gpfs/projects/drug_discovery/mergetbj/GRAILS/CatS/glide-dock_SP_1_zrqq_gc4FEset

> <s_m_entry_id>
782

> <s_m_entry_name>
CatS_FEset_compounds_D3R_GC4_answers.38

> <s_m_job_name>
glide-dock_SP_1_zrqq_gc4FEset

> <s_m_source_file>
ligprep_2.maegz

> <s_m_subgroup_title>
glide-dock_SP_1_zrqq_gc4FEset_pv

> <s_m_subgroupid>
glide-dock_SP_1_zrqq_gc4FEset_pv

$$$$
CatS_178
                    3D
 Schrodinger Suite 2023-3.
 93 97  0  0  1  0            999 V2000
  -11.0462    9.5900   -9.4766 C   0  0  0  0  0  0
   -9.5498    8.9215  -10.3299 S   0  0  0  0  0  0
   -9.3481    7.5363   -9.8807 O   0  0  0  0  0  0
   -9.6704    9.2197  -11.7665 O   0  0  0  0  0  0
   -8.2491    9.8667   -9.6743 N   0  0  1  0  0  0
   -8.0100   11.2508  -10.1669 C   0  0  0  0  0  0
   -6.4995   11.6143  -10.1346 C   0  0  0  0  0  0
   -5.8078   10.9297   -8.9876 C   0  0  0  0  0  0
   -6.3939   10.0322   -8.1346 C   0  0  0  0  0  0
   -5.3557    9.6225   -7.2549 C   0  0  0  0  0  0
   -4.2032   10.2077   -7.5717 N   0  0  0  0  0  0
   -4.4756   10.9907   -8.6452 N   0  0  0  0  0  0
   -3.3949   11.7009   -9.3143 C   0  0  0  0  0  0
   -3.1437   13.1303   -8.7836 C   0  0  2  0  0  0
   -2.6319   13.1866   -7.3187 C   0  0  0  0  0  0
   -2.4422   14.5842   -6.7885 N   0  3  1  0  0  0
   -2.0790   14.5612   -5.3306 C   0  0  0  0  0  0
   -1.9669   15.9972   -4.7660 C   0  0  0  0  0  0
   -0.9339   16.8298   -5.5439 C   0  0  2  0  0  0
   -1.3754   16.8495   -7.0213 C   0  0  0  0  0  0
   -1.4906   15.4229   -7.6038 C   0  0  0  0  0  0
    0.3959   16.2488   -5.3889 N   0  0  0  0  0  0
    1.5584   16.8320   -5.7150 C   0  0  0  0  0  0
    1.6301   17.9620   -6.1915 O   0  0  0  0  0  0
    2.8347   16.0213   -5.4655 C   0  0  0  0  0  0
    2.5586   14.6325   -5.3808 O   0  0  0  0  0  0
   -4.3092   13.9212   -8.9137 O   0  0  0  0  0  0
   -5.4462    8.6639   -6.1441 C   0  0  0  0  0  0
   -4.4138    7.7439   -5.8864 C   0  0  0  0  0  0
   -4.5640    6.7726   -4.8822 C   0  0  0  0  0  0
   -5.7412    6.7054   -4.1065 C   0  0  0  0  0  0
   -6.7521    7.6726   -4.3208 C   0  0  0  0  0  0
   -6.6022    8.6279   -5.3449 C   0  0  0  0  0  0
   -8.2240    7.7206   -3.3429 S   0  0  0  0  0  0
   -7.9591    9.0534   -2.1387 C   0  0  0  0  0  0
   -9.2129    9.9311   -1.9574 C   0  0  0  0  0  0
   -8.9797   11.0712   -1.0699 N   0  0  0  0  0  0
  -10.2718   11.6595   -0.7017 C   0  0  0  0  0  0
  -10.0702   12.8176    0.2933 C   0  0  0  0  0  0
   -9.1523   13.9046   -0.2980 C   0  0  0  0  0  0
   -7.8482   13.2473   -0.7845 C   0  0  0  0  0  0
   -8.1472   12.0780   -1.7371 C   0  0  0  0  0  0
   -8.8790   14.8283    0.6345 F   0  0  0  0  0  0
   -9.7654   14.5042   -1.3301 F   0  0  0  0  0  0
   -5.9170    5.5739   -3.0993 C   0  0  0  0  0  0
   -4.8810    4.7364   -3.1056 F   0  0  0  0  0  0
   -6.0581    6.0519   -1.8635 F   0  0  0  0  0  0
   -6.9920    4.8595   -3.4228 F   0  0  0  0  0  0
   -7.8330    9.6297   -8.2747 C   0  0  0  0  0  0
  -10.8819    9.5915   -8.3988 H   0  0  0  0  0  0
  -11.2443   10.6082   -9.8157 H   0  0  0  0  0  0
  -11.9096    8.9582   -9.7037 H   0  0  0  0  0  0
   -8.5840   11.9514   -9.5555 H   0  0  0  0  0  0
   -8.3899   11.3433  -11.1824 H   0  0  0  0  0  0
   -6.3902   12.7002  -10.0524 H   0  0  0  0  0  0
   -6.0341   11.3329  -11.0852 H   0  0  0  0  0  0
   -3.6316   11.7459  -10.3765 H   0  0  0  0  0  0
   -2.4812   11.1085   -9.2388 H   0  0  0  0  0  0
   -2.4033   13.5884   -9.4364 H   0  0  0  0  0  0
   -1.6861   12.6365   -7.2382 H   0  0  0  0  0  0
   -3.3425   12.6499   -6.6801 H   0  0  0  0  0  0
   -2.8332   14.0070   -4.7557 H   0  0  0  0  0  0
   -1.1335   14.0254   -5.1799 H   0  0  0  0  0  0
   -1.7068   15.9740   -3.7091 H   0  0  0  0  0  0
   -2.9423   16.4845   -4.8263 H   0  0  0  0  0  0
   -0.8956   17.8464   -5.1394 H   0  0  0  0  0  0
   -2.3446   17.3446   -7.1070 H   0  0  0  0  0  0
   -0.6847   17.4396   -7.6203 H   0  0  0  0  0  0
   -1.8345   15.5063   -8.6426 H   0  0  0  0  0  0
   -0.5012   14.9511   -7.6454 H   0  0  0  0  0  0
    0.4672   15.3134   -5.0159 H   0  0  0  0  0  0
    3.2969   16.3580   -4.5376 H   0  0  0  0  0  0
    3.5445   16.2030   -6.2728 H   0  0  0  0  0  0
    3.3822   14.1673   -5.3064 H   0  0  0  0  0  0
   -5.0120   13.5226   -8.4223 H   0  0  0  0  0  0
   -3.5129    7.7635   -6.4743 H   0  0  0  0  0  0
   -3.7684    6.0640   -4.7272 H   0  0  0  0  0  0
   -7.3976    9.3301   -5.5208 H   0  0  0  0  0  0
   -7.6702    8.6119   -1.1846 H   0  0  0  0  0  0
   -7.1106    9.6350   -2.4908 H   0  0  0  0  0  0
   -9.5870   10.2768   -2.9228 H   0  0  0  0  0  0
   -9.9929    9.3025   -1.5264 H   0  0  0  0  0  0
  -10.7947   12.0169   -1.5901 H   0  0  0  0  0  0
  -10.9090   10.9043   -0.2412 H   0  0  0  0  0  0
  -11.0320   13.2542    0.5608 H   0  0  0  0  0  0
   -9.6416   12.4324    1.2199 H   0  0  0  0  0  0
   -7.2703   12.8901    0.0687 H   0  0  0  0  0  0
   -7.2272   13.9872   -1.2869 H   0  0  0  0  0  0
   -7.2035   11.6384   -2.0467 H   0  0  0  0  0  0
   -8.6382   12.4489   -2.6384 H   0  0  0  0  0  0
   -7.9861    8.5771   -8.0317 H   0  0  0  0  0  0
   -8.4936   10.1886   -7.6021 H   0  0  0  0  0  0
   -3.3454   15.0539   -6.8352 H   0  0  0  0  0  0
  1  2  1  0  0  0
  1 50  1  0  0  0
  1 51  1  0  0  0
  1 52  1  0  0  0
  2  3  2  0  0  0
  2  4  2  0  0  0
  2  5  1  0  0  0
  5 49  1  0  0  0
  5  6  1  0  0  0
  6  7  1  0  0  0
  6 53  1  0  0  0
  6 54  1  0  0  0
  7  8  1  0  0  0
  7 55  1  0  0  0
  7 56  1  0  0  0
  8 12  1  0  0  0
  8  9  2  0  0  0
  9 10  1  0  0  0
  9 49  1  0  0  0
 10 11  2  0  0  0
 10 28  1  0  0  0
 11 12  1  0  0  0
 12 13  1  0  0  0
 13 14  1  0  0  0
 13 57  1  0  0  0
 13 58  1  0  0  0
 14 15  1  0  0  0
 14 27  1  0  0  0
 14 59  1  0  0  0
 15 16  1  0  0  0
 15 60  1  0  0  0
 15 61  1  0  0  0
 16 21  1  0  0  0
 16 17  1  0  0  0
 16 93  1  0  0  0
 17 18  1  0  0  0
 17 62  1  0  0  0
 17 63  1  0  0  0
 18 19  1  0  0  0
 18 64  1  0  0  0
 18 65  1  0  0  0
 19 20  1  0  0  0
 19 22  1  0  0  0
 19 66  1  0  0  0
 20 21  1  0  0  0
 20 67  1  0  0  0
 20 68  1  0  0  0
 21 69  1  0  0  0
 21 70  1  0  0  0
 22 23  1  0  0  0
 22 71  1  0  0  0
 23 24  2  0  0  0
 23 25  1  0  0  0
 25 26  1  0  0  0
 25 72  1  0  0  0
 25 73  1  0  0  0
 26 74  1  0  0  0
 27 75  1  0  0  0
 28 33  1  0  0  0
 28 29  2  0  0  0
 29 30  1  0  0  0
 29 76  1  0  0  0
 30 31  2  0  0  0
 30 77  1  0  0  0
 31 32  1  0  0  0
 31 45  1  0  0  0
 32 33  2  0  0  0
 32 34  1  0  0  0
 33 78  1  0  0  0
 34 35  1  0  0  0
 35 36  1  0  0  0
 35 79  1  0  0  0
 35 80  1  0  0  0
 36 37  1  0  0  0
 36 81  1  0  0  0
 36 82  1  0  0  0
 37 42  1  0  0  0
 37 38  1  0  0  0
 38 39  1  0  0  0
 38 83  1  0  0  0
 38 84  1  0  0  0
 39 40  1  0  0  0
 39 85  1  0  0  0
 39 86  1  0  0  0
 40 41  1  0  0  0
 40 43  1  0  0  0
 40 44  1  0  0  0
 41 42  1  0  0  0
 41 87  1  0  0  0
 41 88  1  0  0  0
 42 89  1  0  0  0
 42 90  1  0  0  0
 45 46  1  0  0  0
 45 47  1  0  0  0
 45 48  1  0  0  0
 49 91  1  0  0  0
 49 92  1  0  0  0
M  CHG  1  16   1
M  END
> <i_epik_Tot_Q>
1

> <i_epik_Tot_abs_Q>
1

> <i_f3d_flags>
0

> <i_i_glide_confnum>
4067

> <i_i_glide_lignum>
31

> <i_i_glide_posenum>
340

> <i_i_glide_rotatable_bonds>
16

> <i_lp_mmshare_version>
63125

> <i_m_Source_File_Index>
29

> <i_m_source_file_index>
29

> <b_lp_Chiralities_Consistent>
1

> <b_m_subgroup_collapsed>
0

> <r_canvas_Affinity>
0.045

> <r_epik_Charging_Adjusted_Penalty>
0.0323213345983196

> <r_epik_Ionization_Penalty>
  0.3576

> <r_epik_Ionization_Penalty_Charging>
  0.0323

> <r_epik_Ionization_Penalty_Neutral>
  0.3253

> <r_epik_State_Penalty>
  0.0000

> <r_i_docking_score>
-8.48757113615216

> <r_i_glide_ecoul>
-8.70668983459473

> <r_i_glide_eff_state_penalty>
0

> <r_i_glide_einternal>
3.93004703521729

> <r_i_glide_emodel>
-87.8991258440705

> <r_i_glide_energy>
-59.1587963104248

> <r_i_glide_erotb>
0.362882413957404

> <r_i_glide_esite>
-0.061314210269182

> <r_i_glide_evdw>
-50.4521064758301

> <r_i_glide_gscore>
-8.48757113615216

> <r_i_glide_hbond>
-0.0673808722346497

> <r_i_glide_ligand_efficiency>
-0.173215737472493

> <r_i_glide_ligand_efficiency_ln>
-1.73505374664526

> <r_i_glide_ligand_efficiency_sa>
-0.633849336376658

> <r_i_glide_lipo>
-3.57364566249105

> <r_i_glide_metal>
0

> <r_i_glide_rewards>
-1.31950400613397

> <r_i_glide_rmsd>
0.0349022867434373

> <r_lp_Energy>
46.219124

> <r_lp_tautomer_probability>
1

> <s_epik_cmdline>
J2VwaWtfcHl0aG9uJywgJy1waHQnLCAnMC4wJywgJy1waCcsICc3LjAnLCAnLXRuJywgJzgnLCAnLW1hJywgJzUwMCcsICctaW1hZScsICc8aW5maWxlLm1hZT4nLCAnLW9tYWUnLCAnPG91dGZpbGUubWFlPic=

> <s_epik_input>
RkMxKEYpW0NIMl1bQ0gyXU4oW0NIMl1bQ0gyXTEpW0NIMl1bQ0gyXVNjKFtjSF0yKWMoQyhGKShGKUYpW2NIXVtjSF1jMi1jKGMoYzM0KVtDSDJdTihTKD1PKSg9TylbQ0gzXSlbQ0gyXVtDSDJdMylubjRbQ0gyXVtDQEBIXShbT0hdKVtDSDJdTjVbQ0gyXVtDSDJdW0NIXShbQ0gyXVtDSDJdNSlbTkhdQyg9TylbQ0gyXVtPSF0=

> <s_glide_core_atoms_lig>
33 32 31 45 46 47 48 30 29 28 10 11 12 8 9 7 6 5 49 2 3 4 1 13 14 27 15 16 17 18 19 20 21

> <s_glide_core_atoms_ref>
9 8 13 14 34 35 36 12 11 10 16 39 38 18 17 19 20 40 21 45 42 43 22 23 24 44 25 41 26 27 28 29 30

> <s_glide_core_constrain_type>
snapped_core_restrain

> <s_glide_core_smarts>
c1cc(C(F)(F)F)ccc1-c2nn(c(c23)CCN(C3)S(=O)(=O)C)CC(O)C[N]4CCCCC4

> <s_i_glide_gridfile>
glide-grid_1_zrqq

> <s_lp_Force_Field>
S-OPLS

> <s_lp_Variant>
CatS_178-1

> <s_m_Source_File>
glide-dock_SP_1_zrqq_gc4FEset_pv.maegz

> <s_m_Source_Path>
/gpfs/projects/drug_discovery/mergetbj/GRAILS/CatS/glide-dock_SP_1_zrqq_gc4FEset

> <s_m_entry_id>
783

> <s_m_entry_name>
CatS_FEset_compounds_D3R_GC4_answers.29

> <s_m_job_name>
glide-dock_SP_1_zrqq_gc4FEset

> <s_m_source_file>
ligprep_2.maegz

> <s_m_subgroup_title>
glide-dock_SP_1_zrqq_gc4FEset_pv

> <s_m_subgroupid>
glide-dock_SP_1_zrqq_gc4FEset_pv

$$$$
CatS_4
                    3D
 Schrodinger Suite 2023-3.
 99104  0  0  1  0            999 V2000
  -11.0338    9.6010   -9.4902 C   0  0  0  0  0  0
   -9.5467    8.9360  -10.3476 S   0  0  0  0  0  0
   -9.3413    7.5479   -9.9113 O   0  0  0  0  0  0
   -9.6649    9.2437  -11.7813 O   0  0  0  0  0  0
   -8.2508    9.8781   -9.6884 N   0  0  1  0  0  0
   -7.9989   11.2640  -10.1615 C   0  0  0  0  0  0
   -6.4846   11.6167  -10.1365 C   0  0  0  0  0  0
   -5.7941   10.9248   -8.9851 C   0  0  0  0  0  0
   -6.3806   10.0226   -8.1533 C   0  0  0  0  0  0
   -5.3385    9.5981   -7.2731 C   0  0  0  0  0  0
   -4.1889   10.1897   -7.5806 N   0  0  0  0  0  0
   -4.4576   10.9824   -8.6457 N   0  0  0  0  0  0
   -3.3766   11.6940   -9.3061 C   0  0  0  0  0  0
   -3.1547   13.1204   -8.7711 C   0  0  0  0  0  0
   -2.6105   13.1839   -7.3251 C   0  0  0  0  0  0
   -2.4351   14.5758   -6.8022 N   0  3  1  0  0  0
   -2.0770   14.5713   -5.3442 C   0  0  0  0  0  0
   -1.9936   16.0004   -4.7804 C   0  0  0  0  0  0
   -0.9763   16.8542   -5.5625 C   0  0  1  0  0  0
   -1.3891   16.8399   -7.0507 C   0  0  0  0  0  0
   -1.4829   15.4162   -7.6130 C   0  0  0  0  0  0
   -0.8959   18.2141   -5.0167 N   0  0  0  0  0  0
   -1.4749   19.3510   -5.7169 C   0  0  0  0  0  0
   -1.0415   20.5904   -4.9327 C   0  0  0  0  0  0
   -0.4265   20.0691   -3.6307 C   0  0  0  0  0  0
   -0.3101   18.5718   -3.8648 C   0  0  0  0  0  0
    0.2501   17.8140   -3.0745 O   0  0  0  0  0  0
   -5.4171    8.6434   -6.1605 C   0  0  0  0  0  0
   -4.3887    7.7344   -5.8721 C   0  0  0  0  0  0
   -4.5483    6.7735   -4.8601 C   0  0  0  0  0  0
   -5.7355    6.7015   -4.1000 C   0  0  0  0  0  0
   -6.7570    7.6509   -4.3479 C   0  0  0  0  0  0
   -6.5772    8.5864   -5.3774 C   0  0  0  0  0  0
   -8.2695    7.6343   -3.4282 S   0  0  0  0  0  0
   -9.5471    8.5291   -4.3787 C   0  0  0  0  0  0
   -9.4011   10.0680   -4.5457 C   0  0  0  0  0  0
   -9.3989   10.8822   -3.3174 N   0  3  1  0  0  0
   -8.1298   10.7950   -2.5521 C   0  0  0  0  0  0
   -8.2326   11.5943   -1.2528 C   0  0  0  0  0  0
   -8.5564   13.0685   -1.5228 C   0  0  1  0  0  0
   -9.8089   13.1581   -2.4104 C   0  0  0  0  0  0
   -9.6726   12.2977   -3.6688 C   0  0  0  0  0  0
   -8.7493   13.8325   -0.2091 C   0  0  0  0  0  0
   -9.8401   13.3966    0.4205 F   0  0  0  0  0  0
   -7.6929   13.6463    0.5770 F   0  0  0  0  0  0
   -8.8790   15.1328   -0.4654 F   0  0  0  0  0  0
   -5.9260    5.5797   -3.0875 C   0  0  0  0  0  0
   -4.8925    4.7358   -3.0885 F   0  0  0  0  0  0
   -6.0646    6.0791   -1.8600 F   0  0  0  0  0  0
   -7.0077    4.8743   -3.4134 F   0  0  0  0  0  0
   -7.8235    9.6214   -8.2976 C   0  0  0  0  0  0
  -10.8814    9.5637   -8.4130 H   0  0  0  0  0  0
  -11.2106   10.6307   -9.8002 H   0  0  0  0  0  0
  -11.9024    8.9939   -9.7481 H   0  0  0  0  0  0
   -8.5500   11.9466   -9.5150 H   0  0  0  0  0  0
   -8.3968   11.4033  -11.1657 H   0  0  0  0  0  0
   -6.3475   12.6946  -10.0831 H   0  0  0  0  0  0
   -6.0287   11.2945  -11.0734 H   0  0  0  0  0  0
   -3.5993   11.7346  -10.3736 H   0  0  0  0  0  0
   -2.4605   11.1091   -9.2074 H   0  0  0  0  0  0
   -4.0866   13.6806   -8.8451 H   0  0  0  0  0  0
   -2.4510   13.6073   -9.4464 H   0  0  0  0  0  0
   -1.6538   12.6596   -7.2762 H   0  0  0  0  0  0
   -3.2846   12.6339   -6.6626 H   0  0  0  0  0  0
   -1.1224   14.0620   -5.1957 H   0  0  0  0  0  0
   -2.8076   14.0007   -4.7675 H   0  0  0  0  0  0
   -1.7265   15.9597   -3.7242 H   0  0  0  0  0  0
   -2.9803   16.4634   -4.8251 H   0  0  0  0  0  0
    0.0163   16.4091   -5.4591 H   0  0  0  0  0  0
   -2.3609   17.3226   -7.1696 H   0  0  0  0  0  0
   -0.6833   17.4256   -7.6425 H   0  0  0  0  0  0
   -0.4939   14.9536   -7.6246 H   0  0  0  0  0  0
   -1.7981   15.4801   -8.6526 H   0  0  0  0  0  0
   -1.1293   19.4020   -6.7494 H   0  0  0  0  0  0
   -2.5604   19.2518   -5.7247 H   0  0  0  0  0  0
   -1.8838   21.2574   -4.7472 H   0  0  0  0  0  0
   -0.2994   21.1510   -5.5025 H   0  0  0  0  0  0
   -1.0776   20.2589   -2.7768 H   0  0  0  0  0  0
    0.5478   20.5160   -3.4323 H   0  0  0  0  0  0
   -3.4716    7.7528   -6.4451 H   0  0  0  0  0  0
   -3.7455    6.0786   -4.6782 H   0  0  0  0  0  0
   -7.3423    9.2170   -5.6771 H   0  0  0  0  0  0
   -9.5767    8.0689   -5.3667 H   0  0  0  0  0  0
  -10.5113    8.3218   -3.9196 H   0  0  0  0  0  0
   -8.5744   10.4196   -5.1208 H   0  0  0  0  0  0
  -10.2329   10.3902   -5.1665 H   0  0  0  0  0  0
   -7.9127    9.7782   -2.2695 H   0  0  0  0  0  0
   -7.2887   11.1282   -3.1661 H   0  0  0  0  0  0
   -8.9909   11.1526   -0.6013 H   0  0  0  0  0  0
   -7.2915   11.5264   -0.7171 H   0  0  0  0  0  0
   -7.7134   13.5191   -2.0522 H   0  0  0  0  0  0
   -9.9871   14.1927   -2.6966 H   0  0  0  0  0  0
  -10.6869   12.8401   -1.8466 H   0  0  0  0  0  0
   -8.8682   12.6802   -4.3055 H   0  0  0  0  0  0
  -10.5916   12.3651   -4.2524 H   0  0  0  0  0  0
   -7.9803    8.5707   -8.0560 H   0  0  0  0  0  0
   -8.4702   10.1885   -7.6287 H   0  0  0  0  0  0
   -3.3361   15.0310   -6.8835 H   0  0  0  0  0  0
  -10.1518   10.5488   -2.7296 H   0  0  0  0  0  0
  1  2  1  0  0  0
  1 52  1  0  0  0
  1 53  1  0  0  0
  1 54  1  0  0  0
  2  3  2  0  0  0
  2  4  2  0  0  0
  2  5  1  0  0  0
  5 51  1  0  0  0
  5  6  1  0  0  0
  6  7  1  0  0  0
  6 55  1  0  0  0
  6 56  1  0  0  0
  7  8  1  0  0  0
  7 57  1  0  0  0
  7 58  1  0  0  0
  8 12  1  0  0  0
  8  9  2  0  0  0
  9 10  1  0  0  0
  9 51  1  0  0  0
 10 11  2  0  0  0
 10 28  1  0  0  0
 11 12  1  0  0  0
 12 13  1  0  0  0
 13 14  1  0  0  0
 13 59  1  0  0  0
 13 60  1  0  0  0
 14 15  1  0  0  0
 14 61  1  0  0  0
 14 62  1  0  0  0
 15 16  1  0  0  0
 15 63  1  0  0  0
 15 64  1  0  0  0
 16 21  1  0  0  0
 16 17  1  0  0  0
 16 98  1  0  0  0
 17 18  1  0  0  0
 17 65  1  0  0  0
 17 66  1  0  0  0
 18 19  1  0  0  0
 18 67  1  0  0  0
 18 68  1  0  0  0
 19 20  1  0  0  0
 19 22  1  0  0  0
 19 69  1  0  0  0
 20 21  1  0  0  0
 20 70  1  0  0  0
 20 71  1  0  0  0
 21 72  1  0  0  0
 21 73  1  0  0  0
 22 26  1  0  0  0
 22 23  1  0  0  0
 23 24  1  0  0  0
 23 74  1  0  0  0
 23 75  1  0  0  0
 24 25  1  0  0  0
 24 76  1  0  0  0
 24 77  1  0  0  0
 25 26  1  0  0  0
 25 78  1  0  0  0
 25 79  1  0  0  0
 26 27  2  0  0  0
 28 33  1  0  0  0
 28 29  2  0  0  0
 29 30  1  0  0  0
 29 80  1  0  0  0
 30 31  2  0  0  0
 30 81  1  0  0  0
 31 32  1  0  0  0
 31 47  1  0  0  0
 32 33  2  0  0  0
 32 34  1  0  0  0
 33 82  1  0  0  0
 34 35  1  0  0  0
 35 36  1  0  0  0
 35 83  1  0  0  0
 35 84  1  0  0  0
 36 37  1  0  0  0
 36 85  1  0  0  0
 36 86  1  0  0  0
 37 42  1  0  0  0
 37 38  1  0  0  0
 37 99  1  0  0  0
 38 39  1  0  0  0
 38 87  1  0  0  0
 38 88  1  0  0  0
 39 40  1  0  0  0
 39 89  1  0  0  0
 39 90  1  0  0  0
 40 41  1  0  0  0
 40 43  1  0  0  0
 40 91  1  0  0  0
 41 42  1  0  0  0
 41 92  1  0  0  0
 41 93  1  0  0  0
 42 94  1  0  0  0
 42 95  1  0  0  0
 43 44  1  0  0  0
 43 45  1  0  0  0
 43 46  1  0  0  0
 47 48  1  0  0  0
 47 49  1  0  0  0
 47 50  1  0  0  0
 51 96  1  0  0  0
 51 97  1  0  0  0
M  CHG  2  16   1  37   1
M  END
> <i_epik_Tot_Q>
2

> <i_epik_Tot_abs_Q>
2

> <i_f3d_flags>
0

> <i_i_glide_confnum>
494

> <i_i_glide_lignum>
1

> <i_i_glide_posenum>
1

> <i_i_glide_rotatable_bonds>
13

> <i_lp_mmshare_version>
63125

> <i_m_Source_File_Index>
1

> <i_m_source_file_index>
1

> <b_lp_Chiralities_Consistent>
1

> <b_m_subgroup_collapsed>
0

> <r_canvas_Affinity>
0.31

> <r_epik_Charging_Adjusted_Penalty>
0.153023046593218

> <r_epik_Ionization_Penalty>
  0.0844

> <r_epik_Ionization_Penalty_Charging>
  0.0844

> <r_epik_Ionization_Penalty_Neutral>
  0.0000

> <r_epik_State_Penalty>
  0.0687

> <r_i_docking_score>
-8.4308620333249

> <r_i_glide_ecoul>
-6.23919296264648

> <r_i_glide_eff_state_penalty>
0.0687

> <r_i_glide_einternal>
7.37872648239136

> <r_i_glide_emodel>
-82.8874028758354

> <r_i_glide_energy>
-55.0295715332031

> <r_i_glide_erotb>
0.245498796118058

> <r_i_glide_esite>
-0.0927002089164281

> <r_i_glide_evdw>
-48.7903785705566

> <r_i_glide_gscore>
-8.4995620333249

> <r_i_glide_hbond>
0

> <r_i_glide_ligand_efficiency>
-0.165311020261273

> <r_i_glide_ligand_efficiency_ln>
-1.70948096327317

> <r_i_glide_ligand_efficiency_sa>
-0.613044307921208

> <r_i_glide_lipo>
-3.54005184517512

> <r_i_glide_metal>
0

> <r_i_glide_rewards>
-1.73691090242661

> <r_i_glide_rmsd>
0.0347720232261068

> <r_lp_Energy>
57.950843

> <r_lp_tautomer_probability>
1

> <s_epik_cmdline>
J2VwaWtfcHl0aG9uJywgJy1waHQnLCAnMC4wJywgJy1waCcsICc3LjAnLCAnLXRuJywgJzgnLCAnLW1hJywgJzUwMCcsICctaW1hZScsICc8aW5maWxlLm1hZT4nLCAnLW9tYWUnLCAnPG91dGZpbGUubWFlPic=

> <s_epik_input>
W0NIMl0xW0NIMl1bQ0hdKEMoRikoRilGKVtDSDJdW0NIMl1OMVtDSDJdW0NIMl1TYyhbY0hdMiljKEMoRikoRilGKVtjSF1bY0hdYzItYyhjKGMzNClbQ0gyXU4oUyg9TykoPU8pW0NIM10pW0NIMl1bQ0gyXTMpbm40W0NIMl1bQ0gyXVtDSDJdTjVbQ0gyXVtDSDJdW0NIXShbQ0gyXVtDSDJdNSlONltDSDJdW0NIMl1bQ0gyXUM2PU8=

> <s_glide_core_atoms_lig>
33 32 31 47 48 49 50 30 29 28 10 11 12 8 9 7 6 5 51 2 3 4 1 13 14 15 16 17 18 19 20 21

> <s_glide_core_atoms_ref>
9 8 13 14 34 35 36 12 11 10 16 39 38 18 17 19 20 40 21 45 42 43 22 23 24 25 41 26 27 28 29 30

> <s_glide_core_constrain_type>
snapped_core_restrain

> <s_glide_core_smarts>
c1cc(C(F)(F)F)ccc1-c2nn(c(c23)CCN(C3)S(=O)(=O)C)CCC[N]4CCCCC4

> <s_i_glide_gridfile>
glide-grid_1_zrqq

> <s_lp_Force_Field>
S-OPLS

> <s_lp_Variant>
CatS_4-1

> <s_m_Source_File>
glide-dock_SP_1_zrqq_gc4FEset_pv.maegz

> <s_m_Source_Path>
/gpfs/projects/drug_discovery/mergetbj/GRAILS/CatS/glide-dock_SP_1_zrqq_gc4FEset

> <s_m_entry_id>
784

> <s_m_entry_name>
CatS_FEset_compounds_D3R_GC4_answers.1

> <s_m_job_name>
glide-dock_SP_1_zrqq_gc4FEset

> <s_m_source_file>
ligprep_2.maegz

> <s_m_subgroup_title>
glide-dock_SP_1_zrqq_gc4FEset_pv

> <s_m_subgroupid>
glide-dock_SP_1_zrqq_gc4FEset_pv

$$$$
CatS_52
                    3D
 Schrodinger Suite 2023-3.
109115  0  0  1  0            999 V2000
  -11.0328    9.5962   -9.4844 C   0  0  0  0  0  0
   -9.5384    8.9271  -10.3256 S   0  0  0  0  0  0
   -9.3337    7.5512   -9.8943 O   0  0  0  0  0  0
   -9.6578    9.2301  -11.7719 O   0  0  0  0  0  0
   -8.2451    9.8814   -9.6765 N   0  0  1  0  0  0
   -7.9970   11.2625  -10.1610 C   0  0  0  0  0  0
   -6.4837   11.6243  -10.1309 C   0  0  0  0  0  0
   -5.7881   10.9345   -8.9794 C   0  0  0  0  0  0
   -6.3808   10.0410   -8.1401 C   0  0  0  0  0  0
   -5.3374    9.6251   -7.2634 C   0  0  0  0  0  0
   -4.1863   10.2115   -7.5667 N   0  0  0  0  0  0
   -4.4526   10.9939   -8.6395 N   0  0  0  0  0  0
   -3.3765   11.6993   -9.3065 C   0  0  0  0  0  0
   -3.1455   13.1259   -8.7778 C   0  0  0  0  0  0
   -2.6010   13.1933   -7.3271 C   0  0  0  0  0  0
   -2.4481   14.5851   -6.7899 N   0  3  1  0  0  0
   -2.0940   14.5798   -5.3296 C   0  0  0  0  0  0
   -1.9374   16.0037   -4.7743 C   0  0  0  0  0  0
   -0.9025   16.8332   -5.5572 C   0  0  2  0  0  0
   -1.3565   16.8580   -7.0337 C   0  0  0  0  0  0
   -1.4810   15.4412   -7.6458 C   0  0  0  0  0  0
    0.4723   16.3209   -5.3823 N   0  0  0  0  0  0
    1.4541   17.1875   -4.7461 C   0  0  0  0  0  0
    2.8075   16.4893   -4.8790 C   0  0  0  0  0  0
    2.4998   15.0698   -5.3256 C   0  0  0  0  0  0
    1.0530   15.1309   -5.6987 C   0  0  0  0  0  0
    0.5823   14.1366   -6.2065 O   0  0  0  0  0  0
   -5.4239    8.6651   -6.1550 C   0  0  0  0  0  0
   -4.3904    7.7495   -5.8780 C   0  0  0  0  0  0
   -4.5485    6.7731   -4.8803 C   0  0  0  0  0  0
   -5.7306    6.7058   -4.1128 C   0  0  0  0  0  0
   -6.7393    7.6749   -4.3317 C   0  0  0  0  0  0
   -6.5777    8.6270   -5.3555 C   0  0  0  0  0  0
   -8.2359    7.6725   -3.3878 S   0  0  0  0  0  0
   -8.8245    9.3799   -3.3231 C   0  0  0  0  0  0
   -8.1537   10.1734   -2.1964 C   0  0  0  0  0  0
   -8.4092   11.6267   -2.2733 N   0  3  1  0  0  0
   -9.8448   11.9425   -2.4518 C   0  0  0  0  0  0
  -10.0548   13.4521   -2.6201 C   0  0  0  0  0  0
   -9.5021   14.2261   -1.4126 C   0  0  2  0  0  0
   -8.0298   13.8454   -1.2020 C   0  0  0  0  0  0
   -7.8496   12.3224   -1.0918 C   0  0  0  0  0  0
  -10.3353   13.9808   -0.1414 C   0  0  0  0  0  0
  -11.7935   14.3760   -0.2771 C   0  0  0  0  0  0
  -12.8045   13.5325    0.2217 C   0  0  0  0  0  0
  -14.1585   13.9009    0.1144 C   0  0  0  0  0  0
  -14.5085   15.1159   -0.5044 C   0  0  0  0  0  0
  -13.5051   15.9598   -1.0137 C   0  0  0  0  0  0
  -12.1524   15.5900   -0.9055 C   0  0  0  0  0  0
   -5.9159    5.5776   -3.1008 C   0  0  0  0  0  0
   -4.8909    4.7373   -3.0917 F   0  0  0  0  0  0
   -6.0576    6.0555   -1.8660 F   0  0  0  0  0  0
   -6.9907    4.8665   -3.4247 F   0  0  0  0  0  0
   -7.8217    9.6313   -8.2830 C   0  0  0  0  0  0
  -10.8576    9.6290   -8.4123 H   0  0  0  0  0  0
  -11.2444   10.5973   -9.8498 H   0  0  0  0  0  0
  -11.8860    8.9508   -9.6849 H   0  0  0  0  0  0
   -8.5655   11.9580   -9.5435 H   0  0  0  0  0  0
   -8.3807   11.3712  -11.1734 H   0  0  0  0  0  0
   -6.3672   12.7039  -10.0461 H   0  0  0  0  0  0
   -6.0191   11.3286  -11.0742 H   0  0  0  0  0  0
   -3.6013   11.7412  -10.3762 H   0  0  0  0  0  0
   -2.4643   11.1149   -9.2113 H   0  0  0  0  0  0
   -4.0719   13.6900   -8.8521 H   0  0  0  0  0  0
   -2.4420   13.6092   -9.4502 H   0  0  0  0  0  0
   -1.6663   12.6362   -7.2523 H   0  0  0  0  0  0
   -3.3133   12.6646   -6.6799 H   0  0  0  0  0  0
   -2.8841   14.0664   -4.7894 H   0  0  0  0  0  0
   -1.2688   13.9461   -5.0713 H   0  0  0  0  0  0
   -1.6687   15.9629   -3.7207 H   0  0  0  0  0  0
   -2.9001   16.4988   -4.8290 H   0  0  0  0  0  0
   -0.9035   17.8613   -5.1675 H   0  0  0  0  0  0
   -2.3027   17.3589   -7.1168 H   0  0  0  0  0  0
   -0.6369   17.4225   -7.6376 H   0  0  0  0  0  0
   -1.9052   15.5562   -8.6399 H   0  0  0  0  0  0
   -0.5592   14.9722   -7.8481 H   0  0  0  0  0  0
    1.4683   18.1685   -5.2268 H   0  0  0  0  0  0
    1.1867   17.3155   -3.6947 H   0  0  0  0  0  0
    3.3665   16.5088   -3.9489 H   0  0  0  0  0  0
    3.4180   16.9900   -5.6254 H   0  0  0  0  0  0
    2.6410   14.3408   -4.5270 H   0  0  0  0  0  0
    3.1066   14.7540   -6.1762 H   0  0  0  0  0  0
   -3.4894    7.7672   -6.4714 H   0  0  0  0  0  0
   -3.7515    6.0665   -4.7200 H   0  0  0  0  0  0
   -7.3545    9.3363   -5.5612 H   0  0  0  0  0  0
   -8.6896    9.8602   -4.2826 H   0  0  0  0  0  0
   -9.8988    9.3594   -3.1629 H   0  0  0  0  0  0
   -8.4928    9.7957   -1.2300 H   0  0  0  0  0  0
   -7.0802   10.0121   -2.2331 H   0  0  0  0  0  0
  -10.2397   11.4386   -3.3323 H   0  0  0  0  0  0
  -10.4127   11.5653   -1.6002 H   0  0  0  0  0  0
   -9.5639   13.7883   -3.5348 H   0  0  0  0  0  0
  -11.1158   13.6615   -2.7612 H   0  0  0  0  0  0
   -9.5428   15.2904   -1.6339 H   0  0  0  0  0  0
   -7.6434   14.3266   -0.3029 H   0  0  0  0  0  0
   -7.4275   14.2249   -2.0296 H   0  0  0  0  0  0
   -8.3346   11.9535   -0.1849 H   0  0  0  0  0  0
   -6.7898   12.0906   -0.9934 H   0  0  0  0  0  0
  -10.2849   12.9302    0.1430 H   0  0  0  0  0  0
   -9.9049   14.5273    0.6936 H   0  0  0  0  0  0
  -12.5479   12.5961    0.6913 H   0  0  0  0  0  0
  -14.9277   13.2523    0.5064 H   0  0  0  0  0  0
  -15.5481   15.4013   -0.5847 H   0  0  0  0  0  0
  -13.7736   16.8915   -1.4909 H   0  0  0  0  0  0
  -11.3891   16.2493   -1.2979 H   0  0  0  0  0  0
   -7.9684    8.5787   -8.0402 H   0  0  0  0  0  0
   -8.4688   10.1918   -7.6086 H   0  0  0  0  0  0
   -7.9199   11.9853   -3.0847 H   0  0  0  0  0  0
   -3.3224   15.0340   -6.8711 H   0  0  0  0  0  0
  1  2  1  0  0  0
  1 55  1  0  0  0
  1 56  1  0  0  0
  1 57  1  0  0  0
  2  3  2  0  0  0
  2  4  2  0  0  0
  2  5  1  0  0  0
  5 54  1  0  0  0
  5  6  1  0  0  0
  6  7  1  0  0  0
  6 58  1  0  0  0
  6 59  1  0  0  0
  7  8  1  0  0  0
  7 60  1  0  0  0
  7 61  1  0  0  0
  8 12  1  0  0  0
  8  9  2  0  0  0
  9 10  1  0  0  0
  9 54  1  0  0  0
 10 11  2  0  0  0
 10 28  1  0  0  0
 11 12  1  0  0  0
 12 13  1  0  0  0
 13 14  1  0  0  0
 13 62  1  0  0  0
 13 63  1  0  0  0
 14 15  1  0  0  0
 14 64  1  0  0  0
 14 65  1  0  0  0
 15 16  1  0  0  0
 15 66  1  0  0  0
 15 67  1  0  0  0
 16 21  1  0  0  0
 16 17  1  0  0  0
 16109  1  0  0  0
 17 18  1  0  0  0
 17 68  1  0  0  0
 17 69  1  0  0  0
 18 19  1  0  0  0
 18 70  1  0  0  0
 18 71  1  0  0  0
 19 20  1  0  0  0
 19 22  1  0  0  0
 19 72  1  0  0  0
 20 21  1  0  0  0
 20 73  1  0  0  0
 20 74  1  0  0  0
 21 75  1  0  0  0
 21 76  1  0  0  0
 22 26  1  0  0  0
 22 23  1  0  0  0
 23 24  1  0  0  0
 23 77  1  0  0  0
 23 78  1  0  0  0
 24 25  1  0  0  0
 24 79  1  0  0  0
 24 80  1  0  0  0
 25 26  1  0  0  0
 25 81  1  0  0  0
 25 82  1  0  0  0
 26 27  2  0  0  0
 28 33  1  0  0  0
 28 29  2  0  0  0
 29 30  1  0  0  0
 29 83  1  0  0  0
 30 31  2  0  0  0
 30 84  1  0  0  0
 31 32  1  0  0  0
 31 50  1  0  0  0
 32 33  2  0  0  0
 32 34  1  0  0  0
 33 85  1  0  0  0
 34 35  1  0  0  0
 35 36  1  0  0  0
 35 86  1  0  0  0
 35 87  1  0  0  0
 36 37  1  0  0  0
 36 88  1  0  0  0
 36 89  1  0  0  0
 37 42  1  0  0  0
 37 38  1  0  0  0
 37108  1  0  0  0
 38 39  1  0  0  0
 38 90  1  0  0  0
 38 91  1  0  0  0
 39 40  1  0  0  0
 39 92  1  0  0  0
 39 93  1  0  0  0
 40 41  1  0  0  0
 40 43  1  0  0  0
 40 94  1  0  0  0
 41 42  1  0  0  0
 41 95  1  0  0  0
 41 96  1  0  0  0
 42 97  1  0  0  0
 42 98  1  0  0  0
 43 44  1  0  0  0
 43 99  1  0  0  0
 43100  1  0  0  0
 44 49  1  0  0  0
 44 45  2  0  0  0
 45 46  1  0  0  0
 45101  1  0  0  0
 46 47  2  0  0  0
 46102  1  0  0  0
 47 48  1  0  0  0
 47103  1  0  0  0
 48 49  2  0  0  0
 48104  1  0  0  0
 49105  1  0  0  0
 50 51  1  0  0  0
 50 52  1  0  0  0
 50 53  1  0  0  0
 54106  1  0  0  0
 54107  1  0  0  0
M  CHG  2  16   1  37   1
M  END
> <i_epik_Tot_Q>
2

> <i_epik_Tot_abs_Q>
2

> <i_f3d_flags>
0

> <i_i_glide_confnum>
2032

> <i_i_glide_lignum>
6

> <i_i_glide_posenum>
234

> <i_i_glide_rotatable_bonds>
14

> <i_lp_mmshare_version>
63125

> <i_m_Source_File_Index>
5

> <i_m_source_file_index>
5

> <b_lp_Chiralities_Consistent>
1

> <b_m_subgroup_collapsed>
0

> <r_canvas_Affinity>
0.34

> <r_epik_Charging_Adjusted_Penalty>
0.0271400608703031

> <r_epik_Ionization_Penalty>
  0.0272

> <r_epik_Ionization_Penalty_Charging>
  0.0271

> <r_epik_Ionization_Penalty_Neutral>
  0.0000

> <r_epik_State_Penalty>
  0.0000

> <r_i_docking_score>
-8.23250133202758

> <r_i_glide_ecoul>
-7.96663331985474

> <r_i_glide_eff_state_penalty>
0

> <r_i_glide_einternal>
12.8664712905884

> <r_i_glide_emodel>
-87.2101644547755

> <r_i_glide_energy>
-60.1192555427551

> <r_i_glide_erotb>
0.287075163294964

> <r_i_glide_esite>
-0.058934761837703

> <r_i_glide_evdw>
-52.1526222229004

> <r_i_glide_gscore>
-8.23250133202758

> <r_i_glide_hbond>
0

> <r_i_glide_ligand_efficiency>
-0.152453728370881

> <r_i_glide_ligand_efficiency_ln>
-1.65013583029936

> <r_i_glide_ligand_efficiency_sa>
-0.576238983762082

> <r_i_glide_lipo>
-3.35831350090867

> <r_i_glide_metal>
0

> <r_i_glide_rewards>
-1.29970212345294

> <r_i_glide_rmsd>
0.0382019900169729

> <r_lp_Energy>
64.581376

> <r_lp_tautomer_probability>
1

> <s_epik_cmdline>
J2VwaWtfcHl0aG9uJywgJy1waHQnLCAnMC4wJywgJy1waCcsICc3LjAnLCAnLXRuJywgJzgnLCAnLW1hJywgJzUwMCcsICctaW1hZScsICc8aW5maWxlLm1hZT4nLCAnLW9tYWUnLCAnPG91dGZpbGUubWFlPic=

> <s_epik_input>
Tz1DMVtDSDJdW0NIMl1bQ0gyXU4xW0NIXShbQ0gyXVtDSDJdMilbQ0gyXVtDSDJdTjJbQ0gyXVtDSDJdW0NIMl1uM25jKGMoYzM0KVtDSDJdTihTKD1PKSg9TylbQ0gzXSlbQ0gyXVtDSDJdNCktYzVbY0hdW2NIXWMoQyhGKShGKUYpYyhbY0hdNSlTW0NIMl1bQ0gyXU42W0NIMl1bQ0gyXVtDSF0oW0NIMl1bQ0gyXTYpW0NIMl1jN1tjSF1bY0hdW2NIXVtjSF1bY0hdNw==

> <s_glide_core_atoms_lig>
33 32 31 50 51 52 53 30 29 28 10 11 12 8 9 7 6 5 54 2 3 4 1 13 14 15 16 17 18 19 20 21

> <s_glide_core_atoms_ref>
9 8 13 14 34 35 36 12 11 10 16 39 38 18 17 19 20 40 21 45 42 43 22 23 24 25 41 26 27 28 29 30

> <s_glide_core_constrain_type>
snapped_core_restrain

> <s_glide_core_smarts>
c1cc(C(F)(F)F)ccc1-c2nn(c(c23)CCN(C3)S(=O)(=O)C)CCC[N]4CCCCC4

> <s_i_glide_gridfile>
glide-grid_1_zrqq

> <s_lp_Force_Field>
S-OPLS

> <s_lp_Variant>
CatS_52-1

> <s_m_Source_File>
glide-dock_SP_1_zrqq_gc4FEset_pv.maegz

> <s_m_Source_Path>
/gpfs/projects/drug_discovery/mergetbj/GRAILS/CatS/glide-dock_SP_1_zrqq_gc4FEset

> <s_m_entry_id>
785

> <s_m_entry_name>
CatS_FEset_compounds_D3R_GC4_answers.5

> <s_m_job_name>
glide-dock_SP_1_zrqq_gc4FEset

> <s_m_source_file>
ligprep_2.maegz

> <s_m_subgroup_title>
glide-dock_SP_1_zrqq_gc4FEset_pv

> <s_m_subgroupid>
glide-dock_SP_1_zrqq_gc4FEset_pv

$$$$
CatS_191
                    3D
 Schrodinger Suite 2023-3.
100104  0  0  1  0            999 V2000
   -9.6341   13.6129    0.8898 C   0  0  0  0  0  0
   -9.4765   13.1049   -0.5415 C   0  0  2  0  0  0
  -10.4078   11.9216   -0.8160 C   0  0  0  0  0  0
  -10.2100   11.3789   -2.2351 C   0  0  0  0  0  0
   -8.8026   10.9973   -2.4731 N   0  3  2  0  0  0
   -7.8840   12.1350   -2.2450 C   0  0  0  0  0  0
   -8.0264   12.6915   -0.8224 C   0  0  0  0  0  0
   -8.6298   10.4694   -3.8384 C   0  0  0  0  0  0
   -9.2569    9.0752   -4.0464 C   0  0  0  0  0  0
   -8.2319    7.7486   -3.3563 S   0  0  0  0  0  0
   -6.7480    7.6893   -4.3350 C   0  0  0  0  0  0
   -6.5865    8.6003   -5.3901 C   0  0  0  0  0  0
   -5.4228    8.6489   -6.1691 C   0  0  0  0  0  0
   -4.3862    7.7389   -5.8693 C   0  0  0  0  0  0
   -4.5492    6.7857   -4.8540 C   0  0  0  0  0  0
   -5.7365    6.7282   -4.0882 C   0  0  0  0  0  0
   -5.9286    5.6044   -3.0716 C   0  0  0  0  0  0
   -4.9235    4.7367   -3.1073 F   0  0  0  0  0  0
   -6.0281    6.0990   -1.8371 F   0  0  0  0  0  0
   -7.0321    4.9229   -3.3746 F   0  0  0  0  0  0
   -5.3341    9.6087   -7.2704 C   0  0  0  0  0  0
   -6.3787   10.0366   -8.1612 C   0  0  0  0  0  0
   -5.7947   10.9184   -8.9805 C   0  0  0  0  0  0
   -4.4551   10.9915   -8.6433 N   0  0  0  0  0  0
   -4.1967   10.2065   -7.5790 N   0  0  0  0  0  0
   -3.3816   11.7066   -9.3083 C   0  0  0  0  0  0
   -3.1340   13.1406   -8.7841 C   0  0  2  0  0  0
   -2.6202   13.1919   -7.3305 C   0  0  0  0  0  0
   -2.4259   14.5905   -6.8025 N   0  3  1  0  0  0
   -2.0513   14.5799   -5.3431 C   0  0  0  0  0  0
   -1.9371   16.0124   -4.7914 C   0  0  0  0  0  0
   -0.9159   16.8568   -5.5836 C   0  0  2  0  0  0
   -1.3630   16.8575   -7.0575 C   0  0  0  0  0  0
   -1.4813   15.4335   -7.6297 C   0  0  0  0  0  0
    0.4327   16.3091   -5.4578 N   0  0  0  0  0  0
    1.3408   16.6581   -4.5336 C   0  0  0  0  0  0
    1.1315   17.5229   -3.6846 O   0  0  0  0  0  0
    2.6613   15.8669   -4.5518 C   0  0  2  0  0  0
    3.5998   16.2330   -3.3961 C   0  0  0  0  0  0
    3.3344   16.0747   -5.7799 O   0  0  0  0  0  0
   -4.3064   13.9246   -8.9141 O   0  0  0  0  0  0
   -6.4904   11.6152  -10.1392 C   0  0  0  0  0  0
   -8.0062   11.2622  -10.1492 C   0  0  0  0  0  0
   -8.2508    9.8789   -9.6810 N   0  0  1  0  0  0
   -7.8229    9.6152   -8.2910 C   0  0  0  0  0  0
   -9.5425    8.9382  -10.3527 S   0  0  0  0  0  0
   -9.3200    7.5362   -9.9349 O   0  0  0  0  0  0
   -9.6688    9.2600  -11.7716 O   0  0  0  0  0  0
  -11.0342    9.5851   -9.4781 C   0  0  0  0  0  0
   -9.3693   12.8418    1.6140 H   0  0  0  0  0  0
   -8.9977   14.4790    1.0658 H   0  0  0  0  0  0
  -10.6658   13.9117    1.0820 H   0  0  0  0  0  0
   -9.7419   13.9191   -1.2153 H   0  0  0  0  0  0
  -11.4494   12.2109   -0.6854 H   0  0  0  0  0  0
  -10.2172   11.1227   -0.1035 H   0  0  0  0  0  0
  -10.5142   12.1220   -2.9719 H   0  0  0  0  0  0
  -10.8685   10.5232   -2.3736 H   0  0  0  0  0  0
   -6.8517   11.8166   -2.4040 H   0  0  0  0  0  0
   -8.0953   12.9204   -2.9716 H   0  0  0  0  0  0
   -7.7120   11.9363   -0.1065 H   0  0  0  0  0  0
   -7.3576   13.5418   -0.6929 H   0  0  0  0  0  0
   -7.5534   10.4427   -4.0178 H   0  0  0  0  0  0
   -9.0270   11.1795   -4.5650 H   0  0  0  0  0  0
   -9.4051    8.8834   -5.1081 H   0  0  0  0  0  0
  -10.2523    9.0053   -3.6109 H   0  0  0  0  0  0
   -7.3627    9.2946   -5.6563 H   0  0  0  0  0  0
   -3.4786    7.7576   -6.4555 H   0  0  0  0  0  0
   -3.7503    6.0730   -4.6775 H   0  0  0  0  0  0
   -3.6070   11.7355  -10.3764 H   0  0  0  0  0  0
   -2.4707   11.1094   -9.2223 H   0  0  0  0  0  0
   -2.4099   13.5923   -9.4579 H   0  0  0  0  0  0
   -1.6812   12.6544   -7.2438 H   0  0  0  0  0  0
   -3.3252   12.6750   -6.6849 H   0  0  0  0  0  0
   -2.7714   14.0270   -4.7546 H   0  0  0  0  0  0
   -1.1019   14.0657   -5.2165 H   0  0  0  0  0  0
   -1.6673   15.9893   -3.7320 H   0  0  0  0  0  0
   -2.9171   16.4896   -4.8342 H   0  0  0  0  0  0
   -0.9049   17.8780   -5.2045 H   0  0  0  0  0  0
   -2.3270   17.3597   -7.1474 H   0  0  0  0  0  0
   -0.6670   17.4483   -7.6638 H   0  0  0  0  0  0
   -1.8338   15.5112   -8.6505 H   0  0  0  0  0  0
   -0.5059   14.9592   -7.6759 H   0  0  0  0  0  0
    0.7197   15.5996   -6.1173 H   0  0  0  0  0  0
    2.4187   14.8044   -4.5045 H   0  0  0  0  0  0
    3.1402   16.0168   -2.4310 H   0  0  0  0  0  0
    3.8529   17.2939   -3.4067 H   0  0  0  0  0  0
    4.5309   15.6678   -3.4429 H   0  0  0  0  0  0
    4.0873   15.5025   -5.8098 H   0  0  0  0  0  0
   -5.0056   13.5178   -8.4229 H   0  0  0  0  0  0
   -6.3625   12.6885  -10.0751 H   0  0  0  0  0  0
   -6.0311   11.3047  -11.0710 H   0  0  0  0  0  0
   -8.5496   11.9418   -9.4923 H   0  0  0  0  0  0
   -8.4109   11.4095  -11.1510 H   0  0  0  0  0  0
   -7.9424    8.5641   -8.0452 H   0  0  0  0  0  0
   -8.4575   10.1666   -7.6069 H   0  0  0  0  0  0
  -11.9193    9.0848   -9.8636 H   0  0  0  0  0  0
  -10.9527    9.3816   -8.4138 H   0  0  0  0  0  0
  -11.1210   10.6566   -9.6471 H   0  0  0  0  0  0
   -8.5537   10.2664   -1.8228 H   0  0  0  0  0  0
   -3.3266   15.0314   -6.8760 H   0  0  0  0  0  0
  1  2  1  0  0  0
  1 50  1  0  0  0
  1 51  1  0  0  0
  1 52  1  0  0  0
  2  7  1  0  0  0
  2  3  1  0  0  0
  2 53  1  0  0  0
  3  4  1  0  0  0
  3 54  1  0  0  0
  3 55  1  0  0  0
  4  5  1  0  0  0
  4 56  1  0  0  0
  4 57  1  0  0  0
  5  6  1  0  0  0
  5  8  1  0  0  0
  5 99  1  0  0  0
  6  7  1  0  0  0
  6 58  1  0  0  0
  6 59  1  0  0  0
  7 60  1  0  0  0
  7 61  1  0  0  0
  8  9  1  0  0  0
  8 62  1  0  0  0
  8 63  1  0  0  0
  9 10  1  0  0  0
  9 64  1  0  0  0
  9 65  1  0  0  0
 10 11  1  0  0  0
 11 16  1  0  0  0
 11 12  2  0  0  0
 12 13  1  0  0  0
 12 66  1  0  0  0
 13 14  2  0  0  0
 13 21  1  0  0  0
 14 15  1  0  0  0
 14 67  1  0  0  0
 15 16  2  0  0  0
 15 68  1  0  0  0
 16 17  1  0  0  0
 17 18  1  0  0  0
 17 19  1  0  0  0
 17 20  1  0  0  0
 21 25  2  0  0  0
 21 22  1  0  0  0
 22 45  1  0  0  0
 22 23  2  0  0  0
 23 24  1  0  0  0
 23 42  1  0  0  0
 24 25  1  0  0  0
 24 26  1  0  0  0
 26 27  1  0  0  0
 26 69  1  0  0  0
 26 70  1  0  0  0
 27 28  1  0  0  0
 27 41  1  0  0  0
 27 71  1  0  0  0
 28 29  1  0  0  0
 28 72  1  0  0  0
 28 73  1  0  0  0
 29 34  1  0  0  0
 29 30  1  0  0  0
 29100  1  0  0  0
 30 31  1  0  0  0
 30 74  1  0  0  0
 30 75  1  0  0  0
 31 32  1  0  0  0
 31 76  1  0  0  0
 31 77  1  0  0  0
 32 33  1  0  0  0
 32 35  1  0  0  0
 32 78  1  0  0  0
 33 34  1  0  0  0
 33 79  1  0  0  0
 33 80  1  0  0  0
 34 81  1  0  0  0
 34 82  1  0  0  0
 35 36  1  0  0  0
 35 83  1  0  0  0
 36 37  2  0  0  0
 36 38  1  0  0  0
 38 39  1  0  0  0
 38 40  1  0  0  0
 38 84  1  0  0  0
 39 85  1  0  0  0
 39 86  1  0  0  0
 39 87  1  0  0  0
 40 88  1  0  0  0
 41 89  1  0  0  0
 42 43  1  0  0  0
 42 90  1  0  0  0
 42 91  1  0  0  0
 43 44  1  0  0  0
 43 92  1  0  0  0
 43 93  1  0  0  0
 44 45  1  0  0  0
 44 46  1  0  0  0
 45 94  1  0  0  0
 45 95  1  0  0  0
 46 47  2  0  0  0
 46 48  2  0  0  0
 46 49  1  0  0  0
 49 96  1  0  0  0
 49 97  1  0  0  0
 49 98  1  0  0  0
M  CHG  2   5   1  29   1
M  END
> <i_epik_Tot_Q>
2

> <i_epik_Tot_abs_Q>
2

> <i_f3d_flags>
0

> <i_i_glide_confnum>
278

> <i_i_glide_lignum>
37

> <i_i_glide_posenum>
182

> <i_i_glide_rotatable_bonds>
16

> <i_lp_mmshare_version>
63125

> <i_m_Source_File_Index>
35

> <i_m_source_file_index>
35

> <b_lp_Chiralities_Consistent>
1

> <b_m_subgroup_collapsed>
0

> <r_canvas_Affinity>
0.065

> <r_epik_Charging_Adjusted_Penalty>
0.0699229104471298

> <r_epik_Ionization_Penalty>
  0.0377

> <r_epik_Ionization_Penalty_Charging>
  0.0376

> <r_epik_Ionization_Penalty_Neutral>
  0.0001

> <r_epik_State_Penalty>
  0.0323

> <r_i_docking_score>
-8.20359305855363

> <r_i_glide_ecoul>
-6.69900941848755

> <r_i_glide_eff_state_penalty>
0.0323

> <r_i_glide_einternal>
4.45356416702271

> <r_i_glide_emodel>
-85.258748060192

> <r_i_glide_energy>
-57.2336926460266

> <r_i_glide_erotb>
0.415039252066842

> <r_i_glide_esite>
-0.0594094460908469

> <r_i_glide_evdw>
-50.5346832275391

> <r_i_glide_gscore>
-8.23589305855363

> <r_i_glide_hbond>
0

> <r_i_glide_ligand_efficiency>
-0.167420266501094

> <r_i_glide_ligand_efficiency_ln>
-1.67700212980475

> <r_i_glide_ligand_efficiency_sa>
-0.612641936386259

> <r_i_glide_lipo>
-3.82737084752094

> <r_i_glide_metal>
0

> <r_i_glide_rewards>
-1.2325664428586

> <r_i_glide_rmsd>
0.0389396878455592

> <r_lp_Energy>
60.885648

> <r_lp_tautomer_probability>
1

> <s_epik_cmdline>
J2VwaWtfcHl0aG9uJywgJy1waHQnLCAnMC4wJywgJy1waCcsICc3LjAnLCAnLXRuJywgJzgnLCAnLW1hJywgJzUwMCcsICctaW1hZScsICc8aW5maWxlLm1hZT4nLCAnLW9tYWUnLCAnPG91dGZpbGUubWFlPic=

> <s_epik_input>
W0NIM11bQ0hdMVtDSDJdW0NIMl1OKFtDSDJdW0NIMl0xKVtDSDJdW0NIMl1TYzJbY0hdYyhbY0hdW2NIXWMyQyhGKShGKUYpLWMzbm4oYyhjMzQpW0NIMl1bQ0gyXU4oW0NIMl00KVMoPU8pKD1PKVtDSDNdKVtDSDJdW0NAQEhdKFtPSF0pW0NIMl1ONVtDSDJdW0NIMl1bQ0hdKFtDSDJdW0NIMl01KVtOSF1DKD1PKVtDQEhdKFtDSDNdKVtPSF0=

> <s_glide_core_atoms_lig>
12 11 16 17 18 19 20 15 14 13 21 25 24 23 22 42 43 44 45 46 47 48 49 26 27 41 28 29 30 31 32 33 34

> <s_glide_core_atoms_ref>
9 8 13 14 34 35 36 12 11 10 16 39 38 18 17 19 20 40 21 45 42 43 22 23 24 44 25 41 26 27 28 29 30

> <s_glide_core_constrain_type>
snapped_core_restrain

> <s_glide_core_smarts>
c1cc(C(F)(F)F)ccc1-c2nn(c(c23)CCN(C3)S(=O)(=O)C)CC(O)C[N]4CCCCC4

> <s_i_glide_gridfile>
glide-grid_1_zrqq

> <s_lp_Force_Field>
S-OPLS

> <s_lp_Variant>
CatS_191-1

> <s_m_Source_File>
glide-dock_SP_1_zrqq_gc4FEset_pv.maegz

> <s_m_Source_Path>
/gpfs/projects/drug_discovery/mergetbj/GRAILS/CatS/glide-dock_SP_1_zrqq_gc4FEset

> <s_m_entry_id>
786

> <s_m_entry_name>
CatS_FEset_compounds_D3R_GC4_answers.35

> <s_m_job_name>
glide-dock_SP_1_zrqq_gc4FEset

> <s_m_source_file>
ligprep_2.maegz

> <s_m_subgroup_title>
glide-dock_SP_1_zrqq_gc4FEset_pv

> <s_m_subgroupid>
glide-dock_SP_1_zrqq_gc4FEset_pv

$$$$
CatS_9
                    3D
 Schrodinger Suite 2023-3.
102107  0  0  1  0            999 V2000
  -10.0415   13.2766    0.7070 C   0  0  0  0  0  0
   -9.0868   13.2256   -0.4932 C   0  0  0  0  0  0
   -9.6428   14.1182   -1.6275 C   0  0  0  0  0  0
   -8.8249   13.9720   -2.9220 C   0  0  0  0  0  0
   -8.6949   12.4923   -3.3249 C   0  0  0  0  0  0
   -8.1129   11.7058   -2.2100 N   0  3  1  0  0  0
   -8.9601   11.7658   -0.9913 C   0  0  0  0  0  0
   -7.6644   10.3369   -2.5765 C   0  0  0  0  0  0
   -8.7555    9.4553   -3.2168 C   0  0  0  0  0  0
   -8.2193    7.7235   -3.3476 S   0  0  0  0  0  0
   -6.7431    7.6859   -4.3290 C   0  0  0  0  0  0
   -6.5932    8.6310   -5.3624 C   0  0  0  0  0  0
   -5.4356    8.6652   -6.1582 C   0  0  0  0  0  0
   -4.3994    7.7494   -5.8903 C   0  0  0  0  0  0
   -4.5497    6.7809   -4.8811 C   0  0  0  0  0  0
   -5.7319    6.7157   -4.1065 C   0  0  0  0  0  0
   -5.9148    5.5859   -3.0927 C   0  0  0  0  0  0
   -4.8887    4.7362   -3.1143 F   0  0  0  0  0  0
   -6.0384    6.0641   -1.8566 F   0  0  0  0  0  0
   -7.0032    4.8888   -3.4084 F   0  0  0  0  0  0
   -5.3528    9.6235   -7.2698 C   0  0  0  0  0  0
   -6.3928   10.0441   -8.1476 C   0  0  0  0  0  0
   -5.8037   10.9462   -8.9813 C   0  0  0  0  0  0
   -4.4680   11.0046   -8.6340 N   0  0  0  0  0  0
   -4.2030   10.2157   -7.5653 N   0  0  0  0  0  0
   -3.3852   11.7096   -9.2981 C   0  0  0  0  0  0
   -3.1599   13.1364   -8.7677 C   0  0  0  0  0  0
   -2.6075   13.1908   -7.3228 C   0  0  0  0  0  0
   -2.4396   14.5849   -6.7894 N   0  3  1  0  0  0
   -2.1044   14.5686   -5.3186 C   0  0  0  0  0  0
   -1.9496   15.9901   -4.7575 C   0  0  0  0  0  0
   -0.9396   16.8308   -5.5503 C   0  0  2  0  0  0
   -1.3601   16.8453   -7.0331 C   0  0  0  0  0  0
   -1.5326   15.4413   -7.6311 C   0  0  0  0  0  0
    0.4857   16.4769   -5.2952 N   0  0  0  0  0  0
    1.3097   17.4409   -4.5686 C   0  0  0  0  0  0
    2.7347   16.8633   -4.5827 C   0  0  0  0  0  0
    2.6044   15.4268   -5.0693 C   0  0  0  0  0  0
    1.1706   15.3523   -5.5592 C   0  0  0  0  0  0
    0.7808   14.3267   -6.0967 O   0  0  0  0  0  0
   -6.4935   11.6302  -10.1391 C   0  0  0  0  0  0
   -8.0110   11.2798  -10.1567 C   0  0  0  0  0  0
   -8.2661    9.8962   -9.6818 N   0  0  1  0  0  0
   -7.8269    9.6309   -8.2972 C   0  0  0  0  0  0
   -9.5453    8.9421  -10.3530 S   0  0  0  0  0  0
   -9.3131    7.5511   -9.9342 O   0  0  0  0  0  0
   -9.6703    9.2677  -11.7752 O   0  0  0  0  0  0
  -11.0358    9.5729   -9.4897 C   0  0  0  0  0  0
   -7.7217   13.7364   -0.0114 C   0  0  0  0  0  0
  -10.1185   14.2902    1.0935 H   0  0  0  0  0  0
  -11.0451   12.9352    0.4520 H   0  0  0  0  0  0
   -9.6705   12.6531    1.5196 H   0  0  0  0  0  0
   -9.6499   15.1640   -1.3144 H   0  0  0  0  0  0
  -10.6826   13.8584   -1.8340 H   0  0  0  0  0  0
   -7.8381   14.4117   -2.7875 H   0  0  0  0  0  0
   -9.2945   14.5383   -3.7259 H   0  0  0  0  0  0
   -8.0704   12.4039   -4.2144 H   0  0  0  0  0  0
   -9.6774   12.0946   -3.5866 H   0  0  0  0  0  0
   -9.9442   11.3447   -1.2029 H   0  0  0  0  0  0
   -8.5254   11.1494   -0.2079 H   0  0  0  0  0  0
   -7.2703    9.8531   -1.6847 H   0  0  0  0  0  0
   -6.8209   10.4359   -3.2607 H   0  0  0  0  0  0
   -9.0275    9.8242   -4.2058 H   0  0  0  0  0  0
   -9.6666    9.4721   -2.6193 H   0  0  0  0  0  0
   -7.3833    9.3360   -5.5654 H   0  0  0  0  0  0
   -3.4943    7.7636   -6.4851 H   0  0  0  0  0  0
   -3.7527    6.0677   -4.7182 H   0  0  0  0  0  0
   -3.6117   11.7466  -10.3632 H   0  0  0  0  0  0
   -2.4732   11.1190   -9.2057 H   0  0  0  0  0  0
   -4.0867   13.7028   -8.8425 H   0  0  0  0  0  0
   -2.4525   13.6058   -9.4479 H   0  0  0  0  0  0
   -1.6539   12.6679   -7.2687 H   0  0  0  0  0  0
   -3.2918   12.6628   -6.6617 H   0  0  0  0  0  0
   -2.9323   14.0828   -4.8049 H   0  0  0  0  0  0
   -1.2628   13.9341   -5.0956 H   0  0  0  0  0  0
   -1.6730   15.9482   -3.7064 H   0  0  0  0  0  0
   -2.9208   16.4833   -4.7879 H   0  0  0  0  0  0
   -1.0605   17.8561   -5.1977 H   0  0  0  0  0  0
   -2.3216   17.3540   -7.1050 H   0  0  0  0  0  0
   -0.6697   17.4435   -7.6319 H   0  0  0  0  0  0
   -1.9814   15.5734   -8.6187 H   0  0  0  0  0  0
   -0.5835   14.9601   -7.8441 H   0  0  0  0  0  0
    1.2820   18.4269   -5.0313 H   0  0  0  0  0  0
    0.9455   17.5372   -3.5453 H   0  0  0  0  0  0
    3.2017   16.9024   -3.5978 H   0  0  0  0  0  0
    3.3663   17.4246   -5.2723 H   0  0  0  0  0  0
    2.7353   14.6977   -4.2721 H   0  0  0  0  0  0
    3.2810   15.1871   -5.8864 H   0  0  0  0  0  0
   -6.3511   12.7003  -10.0753 H   0  0  0  0  0  0
   -6.0279   11.2891  -11.0613 H   0  0  0  0  0  0
   -8.5577   11.9626   -9.5065 H   0  0  0  0  0  0
   -8.4070   11.4223  -11.1617 H   0  0  0  0  0  0
   -7.9566    8.5751   -8.0616 H   0  0  0  0  0  0
   -8.4729   10.1836   -7.6149 H   0  0  0  0  0  0
  -11.9105    9.0333   -9.8493 H   0  0  0  0  0  0
  -10.9344    9.4148   -8.4178 H   0  0  0  0  0  0
  -11.1575   10.6346   -9.7015 H   0  0  0  0  0  0
   -7.8313   14.7353    0.3892 H   0  0  0  0  0  0
   -7.3199   13.1364    0.7973 H   0  0  0  0  0  0
   -6.9705   13.7747   -0.7983 H   0  0  0  0  0  0
   -7.2647   12.1853   -1.9494 H   0  0  0  0  0  0
   -3.3466   15.0112   -6.8570 H   0  0  0  0  0  0
  1  2  1  0  0  0
  1 50  1  0  0  0
  1 51  1  0  0  0
  1 52  1  0  0  0
  2  7  1  0  0  0
  2  3  1  0  0  0
  2 49  1  0  0  0
  3  4  1  0  0  0
  3 53  1  0  0  0
  3 54  1  0  0  0
  4  5  1  0  0  0
  4 55  1  0  0  0
  4 56  1  0  0  0
  5  6  1  0  0  0
  5 57  1  0  0  0
  5 58  1  0  0  0
  6  7  1  0  0  0
  6  8  1  0  0  0
  6101  1  0  0  0
  7 59  1  0  0  0
  7 60  1  0  0  0
  8  9  1  0  0  0
  8 61  1  0  0  0
  8 62  1  0  0  0
  9 10  1  0  0  0
  9 63  1  0  0  0
  9 64  1  0  0  0
 10 11  1  0  0  0
 11 16  1  0  0  0
 11 12  2  0  0  0
 12 13  1  0  0  0
 12 65  1  0  0  0
 13 14  2  0  0  0
 13 21  1  0  0  0
 14 15  1  0  0  0
 14 66  1  0  0  0
 15 16  2  0  0  0
 15 67  1  0  0  0
 16 17  1  0  0  0
 17 18  1  0  0  0
 17 19  1  0  0  0
 17 20  1  0  0  0
 21 25  2  0  0  0
 21 22  1  0  0  0
 22 44  1  0  0  0
 22 23  2  0  0  0
 23 24  1  0  0  0
 23 41  1  0  0  0
 24 25  1  0  0  0
 24 26  1  0  0  0
 26 27  1  0  0  0
 26 68  1  0  0  0
 26 69  1  0  0  0
 27 28  1  0  0  0
 27 70  1  0  0  0
 27 71  1  0  0  0
 28 29  1  0  0  0
 28 72  1  0  0  0
 28 73  1  0  0  0
 29 34  1  0  0  0
 29 30  1  0  0  0
 29102  1  0  0  0
 30 31  1  0  0  0
 30 74  1  0  0  0
 30 75  1  0  0  0
 31 32  1  0  0  0
 31 76  1  0  0  0
 31 77  1  0  0  0
 32 33  1  0  0  0
 32 35  1  0  0  0
 32 78  1  0  0  0
 33 34  1  0  0  0
 33 79  1  0  0  0
 33 80  1  0  0  0
 34 81  1  0  0  0
 34 82  1  0  0  0
 35 39  1  0  0  0
 35 36  1  0  0  0
 36 37  1  0  0  0
 36 83  1  0  0  0
 36 84  1  0  0  0
 37 38  1  0  0  0
 37 85  1  0  0  0
 37 86  1  0  0  0
 38 39  1  0  0  0
 38 87  1  0  0  0
 38 88  1  0  0  0
 39 40  2  0  0  0
 41 42  1  0  0  0
 41 89  1  0  0  0
 41 90  1  0  0  0
 42 43  1  0  0  0
 42 91  1  0  0  0
 42 92  1  0  0  0
 43 44  1  0  0  0
 43 45  1  0  0  0
 44 93  1  0  0  0
 44 94  1  0  0  0
 45 46  2  0  0  0
 45 47  2  0  0  0
 45 48  1  0  0  0
 48 95  1  0  0  0
 48 96  1  0  0  0
 48 97  1  0  0  0
 49 98  1  0  0  0
 49 99  1  0  0  0
 49100  1  0  0  0
M  CHG  2   6   1  29   1
M  END
> <i_epik_Tot_Q>
2

> <i_epik_Tot_abs_Q>
2

> <i_f3d_flags>
0

> <i_i_glide_confnum>
6

> <i_i_glide_lignum>
3

> <i_i_glide_posenum>
358

> <i_i_glide_rotatable_bonds>
12

> <i_lp_mmshare_version>
63125

> <i_m_Source_File_Index>
2

> <i_m_source_file_index>
2

> <b_lp_Chiralities_Consistent>
1

> <b_m_subgroup_collapsed>
0

> <r_canvas_Affinity>
0.14

> <r_epik_Charging_Adjusted_Penalty>
0.0202500420923194

> <r_epik_Ionization_Penalty>
  0.0203

> <r_epik_Ionization_Penalty_Charging>
  0.0203

> <r_epik_Ionization_Penalty_Neutral>
  0.0000

> <r_epik_State_Penalty>
  0.0000

> <r_i_docking_score>
-8.1463152397406

> <r_i_glide_ecoul>
-7.15179061889648

> <r_i_glide_eff_state_penalty>
0

> <r_i_glide_einternal>
7.09891986846924

> <r_i_glide_emodel>
-84.7956972895227

> <r_i_glide_energy>
-57.0068893432617

> <r_i_glide_erotb>
0.304056533407209

> <r_i_glide_esite>
-0.0580457642972866

> <r_i_glide_evdw>
-49.8550987243652

> <r_i_glide_gscore>
-8.1463152397406

> <r_i_glide_hbond>
0

> <r_i_glide_ligand_efficiency>
-0.166251331423278

> <r_i_glide_ligand_efficiency_ln>
-1.66529323305007

> <r_i_glide_ligand_efficiency_sa>
-0.608364445586906

> <r_i_glide_lipo>
-3.54413260979688

> <r_i_glide_metal>
0

> <r_i_glide_rewards>
-1.2826698700009

> <r_i_glide_rmsd>
0.0389254764728865

> <r_lp_Energy>
60.283356

> <r_lp_tautomer_probability>
1

> <s_epik_cmdline>
J2VwaWtfcHl0aG9uJywgJy1waHQnLCAnMC4wJywgJy1waCcsICc3LjAnLCAnLXRuJywgJzgnLCAnLW1hJywgJzUwMCcsICctaW1hZScsICc8aW5maWxlLm1hZT4nLCAnLW9tYWUnLCAnPG91dGZpbGUubWFlPic=

> <s_epik_input>
W0NIM11DMShbQ0gzXSlbQ0gyXVtDSDJdW0NIMl1OKFtDSDJdMSlbQ0gyXVtDSDJdU2MyW2NIXWMoW2NIXVtjSF1jMkMoRikoRilGKS1jM25uKGMoYzM0KVtDSDJdW0NIMl1OKFtDSDJdNClTKD1PKSg9TylbQ0gzXSlbQ0gyXVtDSDJdW0NIMl1ONVtDSDJdW0NIMl1bQ0hdKFtDSDJdW0NIMl01KU42W0NIMl1bQ0gyXVtDSDJdQzY9Tw==

> <s_glide_core_atoms_lig>
12 11 16 17 18 19 20 15 14 13 21 25 24 23 22 41 42 43 44 45 46 47 48 26 27 28 29 30 31 32 33 34

> <s_glide_core_atoms_ref>
9 8 13 14 34 35 36 12 11 10 16 39 38 18 17 19 20 40 21 45 42 43 22 23 24 25 41 26 27 28 29 30

> <s_glide_core_constrain_type>
snapped_core_restrain

> <s_glide_core_smarts>
c1cc(C(F)(F)F)ccc1-c2nn(c(c23)CCN(C3)S(=O)(=O)C)CCC[N]4CCCCC4

> <s_i_glide_gridfile>
glide-grid_1_zrqq

> <s_lp_Force_Field>
S-OPLS

> <s_lp_Variant>
CatS_9-2

> <s_m_Source_File>
glide-dock_SP_1_zrqq_gc4FEset_pv.maegz

> <s_m_Source_Path>
/gpfs/projects/drug_discovery/mergetbj/GRAILS/CatS/glide-dock_SP_1_zrqq_gc4FEset

> <s_m_entry_id>
787

> <s_m_entry_name>
CatS_FEset_compounds_D3R_GC4_answers.2

> <s_m_job_name>
glide-dock_SP_1_zrqq_gc4FEset

> <s_m_source_file>
ligprep_2.maegz

> <s_m_subgroup_title>
glide-dock_SP_1_zrqq_gc4FEset_pv

> <s_m_subgroupid>
glide-dock_SP_1_zrqq_gc4FEset_pv

$$$$
CatS_122
                    3D
 Schrodinger Suite 2023-3.
100105  0  0  1  0            999 V2000
    1.3733   17.7385   -2.0657 C   0  0  0  0  0  0
    0.5794   17.4794   -3.2158 O   0  0  0  0  0  0
   -0.0810   18.5347   -3.8123 C   0  0  0  0  0  0
   -0.0293   19.8611   -3.3121 C   0  0  0  0  0  0
   -0.7217   20.9021   -3.9568 C   0  0  0  0  0  0
   -1.4771   20.6358   -5.1093 C   0  0  0  0  0  0
   -1.5374   19.3275   -5.6135 C   0  0  0  0  0  0
   -0.8409   18.2688   -4.9800 C   0  0  0  0  0  0
   -0.8855   16.8453   -5.5525 C   0  0  2  0  0  0
   -1.3872   16.8594   -7.0325 C   0  0  0  0  0  0
   -1.4988   15.4452   -7.6070 C   0  0  0  0  0  0
   -2.4524   14.5919   -6.7886 N   0  3  2  0  0  0
   -2.0703   14.5791   -5.3253 C   0  0  0  0  0  0
   -1.9647   16.0183   -4.7810 C   0  0  0  0  0  0
   -2.6361   13.1893   -7.3224 C   0  0  0  0  0  0
   -3.1816   13.1374   -8.7902 C   0  0  2  0  0  0
   -3.3931   11.6876   -9.3148 C   0  0  0  0  0  0
   -4.4733   10.9777   -8.6512 N   0  0  0  0  0  0
   -5.8094   10.9319   -8.9876 C   0  0  0  0  0  0
   -6.3987   10.0368   -8.1423 C   0  0  0  0  0  0
   -5.3626    9.6099   -7.2600 C   0  0  0  0  0  0
   -4.2073   10.1862   -7.5811 N   0  0  0  0  0  0
   -5.4614    8.6519   -6.1485 C   0  0  0  0  0  0
   -4.4279    7.7412   -5.8638 C   0  0  0  0  0  0
   -4.5836    6.7790   -4.8541 C   0  0  0  0  0  0
   -5.7654    6.7110   -4.0899 C   0  0  0  0  0  0
   -6.7785    7.6699   -4.3236 C   0  0  0  0  0  0
   -6.6278    8.6092   -5.3597 C   0  0  0  0  0  0
   -8.2507    7.7155   -3.3491 S   0  0  0  0  0  0
   -7.9564    9.0066   -2.1129 C   0  0  0  0  0  0
   -9.0987   10.0244   -2.1171 C   0  0  0  0  0  0
   -8.8318   11.1922   -1.2610 N   0  3  1  0  0  0
   -8.1221   12.2331   -2.0308 C   0  0  0  0  0  0
   -7.7839   13.4272   -1.1358 C   0  0  0  0  0  0
   -9.0518   14.0178   -0.4970 C   0  0  2  0  0  0
   -9.8288   12.9025    0.2215 C   0  0  0  0  0  0
  -10.0993   11.7260   -0.7198 C   0  0  0  0  0  0
   -9.8220   14.6105   -1.4275 F   0  0  0  0  0  0
   -5.9403    5.5883   -3.0730 C   0  0  0  0  0  0
   -4.9117    4.7420   -3.0731 F   0  0  0  0  0  0
   -6.0745    6.0833   -1.8435 F   0  0  0  0  0  0
   -7.0203    4.8777   -3.3857 F   0  0  0  0  0  0
   -7.8438    9.6447   -8.2737 C   0  0  0  0  0  0
   -8.2473    9.8818   -9.6816 N   0  0  2  0  0  0
   -8.0039   11.2672  -10.1741 C   0  0  0  0  0  0
   -6.4966   11.6503  -10.1287 C   0  0  0  0  0  0
   -9.5481    8.9421  -10.3564 S   0  0  0  0  0  0
   -9.3561    7.5516   -9.9186 O   0  0  0  0  0  0
   -9.6513    9.2476  -11.7930 O   0  0  0  0  0  0
  -11.0600    9.6023   -9.5102 C   0  0  0  0  0  0
   -2.1898   13.6945   -9.6228 O   0  0  0  0  0  0
    1.8244   16.8074   -1.7230 H   0  0  0  0  0  0
    2.1841   18.4340   -2.2877 H   0  0  0  0  0  0
    0.7719   18.1335   -1.2469 H   0  0  0  0  0  0
    0.5383   20.1119   -2.4292 H   0  0  0  0  0  0
   -0.6726   21.9072   -3.5648 H   0  0  0  0  0  0
   -2.0093   21.4340   -5.6057 H   0  0  0  0  0  0
   -2.1237   19.1565   -6.5002 H   0  0  0  0  0  0
    0.4620   16.3190   -5.4099 H   0  0  0  0  0  0
   -2.3778   17.3272   -7.1212 H   0  0  0  0  0  0
   -0.7184   17.4686   -7.6409 H   0  0  0  0  0  0
   -0.5007   14.9962   -7.6698 H   0  0  0  0  0  0
   -1.8246   15.5724   -8.6429 H   0  0  0  0  0  0
   -1.1066   14.0753   -5.1838 H   0  0  0  0  0  0
   -2.7813   14.0194   -4.6981 H   0  0  0  0  0  0
   -1.7247   16.0022   -3.7187 H   0  0  0  0  0  0
   -2.9565   16.4867   -4.8510 H   0  0  0  0  0  0
   -1.6745   12.6629   -7.2685 H   0  0  0  0  0  0
   -3.3079   12.6162   -6.6663 H   0  0  0  0  0  0
   -4.2685   13.8923   -8.9555 H   0  0  0  0  0  0
   -3.6268   11.7210  -10.3799 H   0  0  0  0  0  0
   -2.4841   11.0814   -9.2329 H   0  0  0  0  0  0
   -3.5078    7.7691   -6.4208 H   0  0  0  0  0  0
   -3.7799    6.0866   -4.6759 H   0  0  0  0  0  0
   -7.4268    9.3006   -5.5560 H   0  0  0  0  0  0
   -7.8536    8.5312   -1.1387 H   0  0  0  0  0  0
   -7.0047    9.4903   -2.3356 H   0  0  0  0  0  0
   -9.2516   10.3709   -3.1394 H   0  0  0  0  0  0
  -10.0354    9.5572   -1.8108 H   0  0  0  0  0  0
   -7.2137   11.8130   -2.4566 H   0  0  0  0  0  0
   -8.7470   12.5508   -2.8706 H   0  0  0  0  0  0
   -7.0833   13.1137   -0.3593 H   0  0  0  0  0  0
   -7.2724   14.1895   -1.7183 H   0  0  0  0  0  0
   -8.7688   14.7848    0.2254 H   0  0  0  0  0  0
  -10.7702   13.2911    0.6029 H   0  0  0  0  0  0
   -9.2681   12.5525    1.0906 H   0  0  0  0  0  0
  -10.7432   12.0370   -1.5467 H   0  0  0  0  0  0
  -10.6298   10.9373   -0.1881 H   0  0  0  0  0  0
   -8.0103    8.5976   -8.0108 H   0  0  0  0  0  0
   -8.4811   10.2234   -7.5954 H   0  0  0  0  0  0
   -8.5908   11.9750   -9.5825 H   0  0  0  0  0  0
   -8.3699   11.3436  -11.1949 H   0  0  0  0  0  0
   -6.4063   12.7361  -10.0097 H   0  0  0  0  0  0
   -6.0251   11.4178  -11.0906 H   0  0  0  0  0  0
  -11.9340    9.0185   -9.8088 H   0  0  0  0  0  0
  -10.9418    9.5232   -8.4288 H   0  0  0  0  0  0
  -11.2280   10.6451   -9.7821 H   0  0  0  0  0  0
   -2.4861   13.7422  -10.5085 H   0  0  0  0  0  0
   -3.3559   15.0642   -6.8458 H   0  0  0  0  0  0
   -8.2449   10.9221   -0.4768 H   0  0  0  0  0  0
  1  2  1  0  0  0
  1 52  1  0  0  0
  1 53  1  0  0  0
  1 54  1  0  0  0
  2  3  1  0  0  0
  3  8  1  0  0  0
  3  4  2  0  0  0
  4  5  1  0  0  0
  4 55  1  0  0  0
  5  6  2  0  0  0
  5 56  1  0  0  0
  6  7  1  0  0  0
  6 57  1  0  0  0
  7  8  2  0  0  0
  7 58  1  0  0  0
  8  9  1  0  0  0
  9 14  1  0  0  0
  9 10  1  0  0  0
  9 59  1  0  0  0
 10 11  1  0  0  0
 10 60  1  0  0  0
 10 61  1  0  0  0
 11 12  1  0  0  0
 11 62  1  0  0  0
 11 63  1  0  0  0
 12 13  1  0  0  0
 12 15  1  0  0  0
 12 99  1  0  0  0
 13 14  1  0  0  0
 13 64  1  0  0  0
 13 65  1  0  0  0
 14 66  1  0  0  0
 14 67  1  0  0  0
 15 16  1  0  0  0
 15 68  1  0  0  0
 15 69  1  0  0  0
 16 17  1  0  0  0
 16 51  1  0  0  0
 16 70  1  0  0  0
 17 18  1  0  0  0
 17 71  1  0  0  0
 17 72  1  0  0  0
 18 22  1  0  0  0
 18 19  1  0  0  0
 19 46  1  0  0  0
 19 20  2  0  0  0
 20 21  1  0  0  0
 20 43  1  0  0  0
 21 22  2  0  0  0
 21 23  1  0  0  0
 23 28  1  0  0  0
 23 24  2  0  0  0
 24 25  1  0  0  0
 24 73  1  0  0  0
 25 26  2  0  0  0
 25 74  1  0  0  0
 26 27  1  0  0  0
 26 39  1  0  0  0
 27 28  2  0  0  0
 27 29  1  0  0  0
 28 75  1  0  0  0
 29 30  1  0  0  0
 30 31  1  0  0  0
 30 76  1  0  0  0
 30 77  1  0  0  0
 31 32  1  0  0  0
 31 78  1  0  0  0
 31 79  1  0  0  0
 32 37  1  0  0  0
 32 33  1  0  0  0
 32100  1  0  0  0
 33 34  1  0  0  0
 33 80  1  0  0  0
 33 81  1  0  0  0
 34 35  1  0  0  0
 34 82  1  0  0  0
 34 83  1  0  0  0
 35 36  1  0  0  0
 35 38  1  0  0  0
 35 84  1  0  0  0
 36 37  1  0  0  0
 36 85  1  0  0  0
 36 86  1  0  0  0
 37 87  1  0  0  0
 37 88  1  0  0  0
 39 40  1  0  0  0
 39 41  1  0  0  0
 39 42  1  0  0  0
 43 44  1  0  0  0
 43 89  1  0  0  0
 43 90  1  0  0  0
 44 45  1  0  0  0
 44 47  1  0  0  0
 45 46  1  0  0  0
 45 91  1  0  0  0
 45 92  1  0  0  0
 46 93  1  0  0  0
 46 94  1  0  0  0
 47 48  2  0  0  0
 47 49  2  0  0  0
 47 50  1  0  0  0
 50 95  1  0  0  0
 50 96  1  0  0  0
 50 97  1  0  0  0
 51 98  1  0  0  0
M  CHG  2  12   1  32   1
M  END
> <i_epik_Tot_Q>
2

> <i_epik_Tot_abs_Q>
2

> <i_f3d_flags>
0

> <i_i_glide_confnum>
4845

> <i_i_glide_lignum>
11

> <i_i_glide_posenum>
151

> <i_i_glide_rotatable_bonds>
14

> <i_lp_mmshare_version>
63125

> <i_m_Source_File_Index>
9

> <i_m_source_file_index>
9

> <b_lp_Chiralities_Consistent>
1

> <b_m_subgroup_collapsed>
0

> <r_canvas_Affinity>
0.02

> <r_epik_Charging_Adjusted_Penalty>
0.142062724873538

> <r_epik_Ionization_Penalty>
  0.0779

> <r_epik_Ionization_Penalty_Charging>
  0.0778

> <r_epik_Ionization_Penalty_Neutral>
  0.0001

> <r_epik_State_Penalty>
  0.0642

> <r_i_docking_score>
-8.1430322667351

> <r_i_glide_ecoul>
-7.07517576217651

> <r_i_glide_eff_state_penalty>
0.0642

> <r_i_glide_einternal>
5.03064441680908

> <r_i_glide_emodel>
-79.2894982515131

> <r_i_glide_energy>
-56.5386919975281

> <r_i_glide_erotb>
0.260567819866129

> <r_i_glide_esite>
-0.0584331717583225

> <r_i_glide_evdw>
-49.4635162353516

> <r_i_glide_gscore>
-8.2072322667351

> <r_i_glide_hbond>
0

> <r_i_glide_ligand_efficiency>
-0.159667299347747

> <r_i_glide_ligand_efficiency_ln>
-1.65111925545448

> <r_i_glide_ligand_efficiency_sa>
-0.59211496530349

> <r_i_glide_lipo>
-3.66332564208369

> <r_i_glide_metal>
0

> <r_i_glide_rewards>
-1.21158909666515

> <r_i_glide_rmsd>
0.0215909609171297

> <r_lp_Energy>
64.593239

> <r_lp_tautomer_probability>
1

> <s_epik_cmdline>
J2VwaWtfcHl0aG9uJywgJy1waHQnLCAnMC4wJywgJy1waCcsICc3LjAnLCAnLXRuJywgJzgnLCAnLW1hJywgJzUwMCcsICctaW1hZScsICc8aW5maWxlLm1hZT4nLCAnLW9tYWUnLCAnPG91dGZpbGUubWFlPic=

> <s_epik_input>
W0NIM11PYzFbY0hdW2NIXVtjSF1bY0hdYzFbQ0hdMltDSDJdW0NIMl1OKFtDSDJdW0NIMl0yKVtDSDJdW0NAQEhdKFtPSF0pW0NIMl1uM25jKGMoYzM0KVtDSDJdTihbQ0gyXVtDSDJdNClTKD1PKSg9TylbQ0gzXSktYzVbY0hdW2NIXWMoQyhGKShGKUYpYyhbY0hdNSlTW0NIMl1bQ0gyXU42W0NIMl1bQ0gyXVtDSF0oRilbQ0gyXVtDSDJdNg==

> <s_glide_core_atoms_lig>
28 27 26 39 40 41 42 25 24 23 21 22 18 19 20 46 45 44 43 47 48 49 50 17 16 70 15 12 13 14 11 10 9 59

> <s_glide_core_atoms_ref>
9 8 13 14 34 35 36 12 11 10 16 39 38 18 17 19 20 40 21 45 42 43 22 23 24 44 25 41 26 27 30 29 28 31

> <s_glide_core_constrain_type>
snapped_core_restrain

> <s_glide_core_smarts>
c1cc(C(F)(F)F)ccc1-c2nn(c(c23)CCN(C3)S(=O)(=O)C)CC(O)C[N](CC4)CCC4C

> <s_i_glide_gridfile>
glide-grid_1_zrqq

> <s_lp_Force_Field>
S-OPLS

> <s_lp_Variant>
CatS_122-1

> <s_m_Source_File>
glide-dock_SP_1_zrqq_gc4FEset_pv.maegz

> <s_m_Source_Path>
/gpfs/projects/drug_discovery/mergetbj/GRAILS/CatS/glide-dock_SP_1_zrqq_gc4FEset

> <s_m_entry_id>
788

> <s_m_entry_name>
CatS_FEset_compounds_D3R_GC4_answers.9

> <s_m_job_name>
glide-dock_SP_1_zrqq_gc4FEset

> <s_m_source_file>
ligprep_2.maegz

> <s_m_subgroup_title>
glide-dock_SP_1_zrqq_gc4FEset_pv

> <s_m_subgroupid>
glide-dock_SP_1_zrqq_gc4FEset_pv

$$$$
CatS_29
                    3D
 Schrodinger Suite 2023-3.
 96100  0  0  1  0            999 V2000
   -1.7750   20.1008   -1.3474 C   0  0  0  0  0  0
   -0.4885   20.3001   -2.1576 C   0  0  0  0  0  0
   -0.6447   19.7810   -3.4708 O   0  0  0  0  0  0
   -0.4670   18.4682   -3.6989 C   0  0  0  0  0  0
   -0.0204   17.6594   -2.8820 O   0  0  0  0  0  0
   -0.8881   18.1896   -4.9911 N   0  0  0  0  0  0
   -0.9663   16.8332   -5.5354 C   0  0  2  0  0  0
   -1.3879   16.8572   -7.0153 C   0  0  0  0  0  0
   -1.4926   15.4313   -7.5997 C   0  0  0  0  0  0
   -2.4417   14.5825   -6.7967 N   0  3  2  0  0  0
   -2.0731   14.5557   -5.3447 C   0  0  0  0  0  0
   -1.9933   15.9777   -4.7637 C   0  0  0  0  0  0
   -2.6023   13.1937   -7.3288 C   0  0  0  0  0  0
   -3.1571   13.1376   -8.7705 C   0  0  0  0  0  0
   -3.3930   11.7144   -9.3074 C   0  0  0  0  0  0
   -4.4666   11.0082   -8.6316 N   0  0  0  0  0  0
   -5.8029   10.9281   -8.9763 C   0  0  0  0  0  0
   -6.3858   10.0391   -8.1412 C   0  0  0  0  0  0
   -5.3470    9.6283   -7.2503 C   0  0  0  0  0  0
   -4.1993   10.2221   -7.5605 N   0  0  0  0  0  0
   -5.4386    8.6755   -6.1508 C   0  0  0  0  0  0
   -4.4061    7.7446   -5.8968 C   0  0  0  0  0  0
   -4.5515    6.7810   -4.8887 C   0  0  0  0  0  0
   -5.7274    6.7108   -4.1068 C   0  0  0  0  0  0
   -6.7347    7.6861   -4.3310 C   0  0  0  0  0  0
   -6.5922    8.6382   -5.3421 C   0  0  0  0  0  0
   -8.1926    7.7494   -3.3470 S   0  0  0  0  0  0
   -7.9047    9.1568   -2.2400 C   0  0  0  0  0  0
   -9.1284   10.0938   -2.2094 C   0  0  0  0  0  0
   -8.8922   11.2942   -1.3649 N   0  3  0  0  0  0
  -10.1361   11.8121   -0.7307 C   0  0  0  0  0  0
   -9.8207   12.9345    0.2727 C   0  0  0  0  0  0
   -9.0177   14.0668   -0.3899 C   0  0  0  0  0  0
   -7.7891   13.5080   -1.1233 C   0  0  0  0  0  0
   -8.1740   12.3764   -2.0973 C   0  0  0  0  0  0
   -5.9132    5.5849   -3.0989 C   0  0  0  0  0  0
   -4.8942    4.7356   -3.1171 F   0  0  0  0  0  0
   -6.0329    6.0662   -1.8647 F   0  0  0  0  0  0
   -7.0028    4.8858   -3.3961 F   0  0  0  0  0  0
   -7.8235    9.6365   -8.2754 C   0  0  0  0  0  0
   -8.2482    9.8931   -9.6710 N   0  0  2  0  0  0
   -8.0073   11.2835  -10.1480 C   0  0  0  0  0  0
   -6.4901   11.6185  -10.1260 C   0  0  0  0  0  0
   -9.5397    8.9487  -10.3336 S   0  0  0  0  0  0
   -9.3137    7.5557   -9.9095 O   0  0  0  0  0  0
   -9.6696    9.2628  -11.7656 O   0  0  0  0  0  0
  -11.0376    9.5821   -9.4764 C   0  0  0  0  0  0
   -1.6702   20.4958   -0.3383 H   0  0  0  0  0  0
   -2.0247   19.0437   -1.2580 H   0  0  0  0  0  0
   -2.6255   20.6001   -1.8164 H   0  0  0  0  0  0
   -0.2713   21.3626   -2.2353 H   0  0  0  0  0  0
    0.3634   19.8431   -1.6498 H   0  0  0  0  0  0
   -1.1991   18.9774   -5.5425 H   0  0  0  0  0  0
    0.0270   16.3854   -5.4545 H   0  0  0  0  0  0
   -2.3445   17.3772   -7.1204 H   0  0  0  0  0  0
   -0.6667   17.4324   -7.5979 H   0  0  0  0  0  0
   -0.4983   14.9617   -7.6097 H   0  0  0  0  0  0
   -1.8364   15.5096   -8.6372 H   0  0  0  0  0  0
   -1.1092   14.0452   -5.2072 H   0  0  0  0  0  0
   -2.8228   13.9836   -4.7923 H   0  0  0  0  0  0
   -1.7291   15.9024   -3.7088 H   0  0  0  0  0  0
   -2.9857   16.4402   -4.8070 H   0  0  0  0  0  0
   -1.6506   12.6547   -7.2800 H   0  0  0  0  0  0
   -3.2910   12.6629   -6.6682 H   0  0  0  0  0  0
   -4.0890   13.6942   -8.8368 H   0  0  0  0  0  0
   -2.4649   13.6135   -9.4632 H   0  0  0  0  0  0
   -3.6306   11.7588  -10.3732 H   0  0  0  0  0  0
   -2.4752   11.1202   -9.2394 H   0  0  0  0  0  0
   -3.5022    7.7733   -6.4914 H   0  0  0  0  0  0
   -3.7533    6.0720   -4.7258 H   0  0  0  0  0  0
   -7.3780    9.3545   -5.5153 H   0  0  0  0  0  0
   -7.7089    8.7618   -1.2386 H   0  0  0  0  0  0
   -7.0030    9.6948   -2.5505 H   0  0  0  0  0  0
   -9.3875   10.4053   -3.2348 H   0  0  0  0  0  0
   -9.9845    9.5178   -1.8323 H   0  0  0  0  0  0
  -10.8197   12.1755   -1.5005 H   0  0  0  0  0  0
  -10.6570   11.0047   -0.2120 H   0  0  0  0  0  0
  -10.7477   13.3292    0.6940 H   0  0  0  0  0  0
   -9.2698   12.5214    1.1148 H   0  0  0  0  0  0
   -8.7027   14.7908    0.3680 H   0  0  0  0  0  0
   -9.6567   14.6068   -1.0892 H   0  0  0  0  0  0
   -7.0668   13.1460   -0.3882 H   0  0  0  0  0  0
   -7.2877   14.3122   -1.6676 H   0  0  0  0  0  0
   -7.2696   11.9757   -2.5624 H   0  0  0  0  0  0
   -8.8103   12.7751   -2.8968 H   0  0  0  0  0  0
   -7.9572    8.5790   -8.0500 H   0  0  0  0  0  0
   -8.4691   10.2003   -7.5950 H   0  0  0  0  0  0
   -8.5578   11.9742   -9.5062 H   0  0  0  0  0  0
   -8.4062   11.4202  -11.1561 H   0  0  0  0  0  0
   -6.3536   12.7003  -10.0542 H   0  0  0  0  0  0
   -6.0301   11.2902  -11.0604 H   0  0  0  0  0  0
  -11.9131    9.0203   -9.8051 H   0  0  0  0  0  0
  -10.9272    9.4631   -8.3999 H   0  0  0  0  0  0
  -11.1744   10.6341   -9.7234 H   0  0  0  0  0  0
   -8.2903   10.9999   -0.6044 H   0  0  0  0  0  0
   -3.3576   15.0210   -6.8511 H   0  0  0  0  0  0
  1  2  1  0  0  0
  1 48  1  0  0  0
  1 49  1  0  0  0
  1 50  1  0  0  0
  2  3  1  0  0  0
  2 51  1  0  0  0
  2 52  1  0  0  0
  3  4  1  0  0  0
  4  5  2  0  0  0
  4  6  1  0  0  0
  6  7  1  0  0  0
  6 53  1  0  0  0
  7 12  1  0  0  0
  7  8  1  0  0  0
  7 54  1  0  0  0
  8  9  1  0  0  0
  8 55  1  0  0  0
  8 56  1  0  0  0
  9 10  1  0  0  0
  9 57  1  0  0  0
  9 58  1  0  0  0
 10 11  1  0  0  0
 10 13  1  0  0  0
 10 96  1  0  0  0
 11 12  1  0  0  0
 11 59  1  0  0  0
 11 60  1  0  0  0
 12 61  1  0  0  0
 12 62  1  0  0  0
 13 14  1  0  0  0
 13 63  1  0  0  0
 13 64  1  0  0  0
 14 15  1  0  0  0
 14 65  1  0  0  0
 14 66  1  0  0  0
 15 16  1  0  0  0
 15 67  1  0  0  0
 15 68  1  0  0  0
 16 20  1  0  0  0
 16 17  1  0  0  0
 17 43  1  0  0  0
 17 18  2  0  0  0
 18 19  1  0  0  0
 18 40  1  0  0  0
 19 20  2  0  0  0
 19 21  1  0  0  0
 21 26  1  0  0  0
 21 22  2  0  0  0
 22 23  1  0  0  0
 22 69  1  0  0  0
 23 24  2  0  0  0
 23 70  1  0  0  0
 24 25  1  0  0  0
 24 36  1  0  0  0
 25 26  2  0  0  0
 25 27  1  0  0  0
 26 71  1  0  0  0
 27 28  1  0  0  0
 28 29  1  0  0  0
 28 72  1  0  0  0
 28 73  1  0  0  0
 29 30  1  0  0  0
 29 74  1  0  0  0
 29 75  1  0  0  0
 30 35  1  0  0  0
 30 31  1  0  0  0
 30 95  1  0  0  0
 31 32  1  0  0  0
 31 76  1  0  0  0
 31 77  1  0  0  0
 32 33  1  0  0  0
 32 78  1  0  0  0
 32 79  1  0  0  0
 33 34  1  0  0  0
 33 80  1  0  0  0
 33 81  1  0  0  0
 34 35  1  0  0  0
 34 82  1  0  0  0
 34 83  1  0  0  0
 35 84  1  0  0  0
 35 85  1  0  0  0
 36 37  1  0  0  0
 36 38  1  0  0  0
 36 39  1  0  0  0
 40 41  1  0  0  0
 40 86  1  0  0  0
 40 87  1  0  0  0
 41 42  1  0  0  0
 41 44  1  0  0  0
 42 43  1  0  0  0
 42 88  1  0  0  0
 42 89  1  0  0  0
 43 90  1  0  0  0
 43 91  1  0  0  0
 44 45  2  0  0  0
 44 46  2  0  0  0
 44 47  1  0  0  0
 47 92  1  0  0  0
 47 93  1  0  0  0
 47 94  1  0  0  0
M  CHG  2  10   1  30   1
M  END
> <i_epik_Tot_Q>
2

> <i_epik_Tot_abs_Q>
2

> <i_f3d_flags>
0

> <i_i_glide_confnum>
2524

> <i_i_glide_lignum>
4

> <i_i_glide_posenum>
248

> <i_i_glide_rotatable_bonds>
15

> <i_lp_mmshare_version>
63125

> <i_m_Source_File_Index>
3

> <i_m_source_file_index>
3

> <b_lp_Chiralities_Consistent>
1

> <b_m_subgroup_collapsed>
0

> <r_canvas_Affinity>
0.086

> <r_epik_Charging_Adjusted_Penalty>
0.0229964698243554

> <r_epik_Ionization_Penalty>
  0.0230

> <r_epik_Ionization_Penalty_Charging>
  0.0230

> <r_epik_Ionization_Penalty_Neutral>
  0.0000

> <r_epik_State_Penalty>
  0.0000

> <r_i_docking_score>
-8.12282512739012

> <r_i_glide_ecoul>
-7.47742748260498

> <r_i_glide_eff_state_penalty>
0

> <r_i_glide_einternal>
6.61640548706055

> <r_i_glide_emodel>
-83.9697159888725

> <r_i_glide_energy>
-58.2331647872925

> <r_i_glide_erotb>
0.388197979057269

> <r_i_glide_esite>
-0.0578017253080848

> <r_i_glide_evdw>
-50.7557373046875

> <r_i_glide_gscore>
-8.12282512739012

> <r_i_glide_hbond>
0

> <r_i_glide_ligand_efficiency>
-0.172826066540215

> <r_i_glide_ligand_efficiency_ln>
-1.67475833612284

> <r_i_glide_ligand_efficiency_sa>
-0.62369921545767

> <r_i_glide_lipo>
-3.5246317719791

> <r_i_glide_metal>
0

> <r_i_glide_rewards>
-1.26918862153508

> <r_i_glide_rmsd>
0.0411944568485673

> <r_lp_Energy>
67.921231

> <r_lp_tautomer_probability>
1

> <s_epik_Chemistry_Notes>
This compound has an ester and may undergo hydrolysis at high or low pH.

> <s_epik_cmdline>
J2VwaWtfcHl0aG9uJywgJy1waHQnLCAnMC4wJywgJy1waCcsICc3LjAnLCAnLXRuJywgJzgnLCAnLW1hJywgJzUwMCcsICctaW1hZScsICc8aW5maWxlLm1hZT4nLCAnLW9tYWUnLCAnPG91dGZpbGUubWFlPic=

> <s_epik_input>
W0NIM11bQ0gyXU9DKD1PKVtOSF1bQ0hdMVtDSDJdW0NIMl1OKFtDSDJdW0NIMl0xKVtDSDJdW0NIMl1bQ0gyXW4ybmMoYyhjMjMpW0NIMl1OKFtDSDJdW0NIMl0zKVMoPU8pKD1PKVtDSDNdKS1jNFtjSF1bY0hdYyhDKEYpKEYpRiljKFtjSF00KVNbQ0gyXVtDSDJdTjVbQ0gyXVtDSDJdW0NIMl1bQ0gyXVtDSDJdNQ==

> <s_glide_core_atoms_lig>
26 25 24 36 37 38 39 23 22 21 19 20 16 17 18 43 42 41 40 44 45 46 47 15 14 13 10 11 12 7 8 9

> <s_glide_core_atoms_ref>
9 8 13 14 34 35 36 12 11 10 16 39 38 18 17 19 20 40 21 45 42 43 22 23 24 25 41 26 27 28 29 30

> <s_glide_core_constrain_type>
snapped_core_restrain

> <s_glide_core_smarts>
c1cc(C(F)(F)F)ccc1-c2nn(c(c23)CCN(C3)S(=O)(=O)C)CCC[N]4CCCCC4

> <s_i_glide_gridfile>
glide-grid_1_zrqq

> <s_lp_Force_Field>
S-OPLS

> <s_lp_Variant>
CatS_29-1

> <s_m_Source_File>
glide-dock_SP_1_zrqq_gc4FEset_pv.maegz

> <s_m_Source_Path>
/gpfs/projects/drug_discovery/mergetbj/GRAILS/CatS/glide-dock_SP_1_zrqq_gc4FEset

> <s_m_entry_id>
789

> <s_m_entry_name>
CatS_FEset_compounds_D3R_GC4_answers.3

> <s_m_job_name>
glide-dock_SP_1_zrqq_gc4FEset

> <s_m_source_file>
ligprep_2.maegz

> <s_m_subgroup_title>
glide-dock_SP_1_zrqq_gc4FEset_pv

> <s_m_subgroupid>
glide-dock_SP_1_zrqq_gc4FEset_pv

$$$$
CatS_255
                    3D
 Schrodinger Suite 2023-3.
 96100  0  0  1  0            999 V2000
   -8.6986   15.4008   -1.3672 C   0  0  0  0  0  0
   -8.5785   14.0118   -0.7047 C   0  0  0  0  0  0
   -8.7235   14.1274    0.8183 C   0  0  0  0  0  0
   -9.5723   12.9951   -1.3235 C   0  0  2  0  0  0
   -9.5531   11.6340   -0.5866 C   0  0  0  0  0  0
  -10.4227   10.5688   -1.2703 C   0  0  0  0  0  0
   -9.9921   10.4198   -2.6759 N   0  3  2  0  0  0
  -10.1754   11.6834   -3.4316 C   0  0  0  0  0  0
   -9.2906   12.7804   -2.8276 C   0  0  0  0  0  0
  -10.5679    9.2392   -3.3575 C   0  0  0  0  0  0
   -9.5325    8.6181   -4.2914 C   0  0  0  0  0  0
   -8.2338    7.7666   -3.3416 S   0  0  0  0  0  0
   -6.7658    7.6935   -4.3323 C   0  0  0  0  0  0
   -6.5868    8.6392   -5.3612 C   0  0  0  0  0  0
   -5.4293    8.6521   -6.1666 C   0  0  0  0  0  0
   -4.4160    7.7157   -5.9027 C   0  0  0  0  0  0
   -4.5900    6.7539   -4.8904 C   0  0  0  0  0  0
   -5.7700    6.7126   -4.1106 C   0  0  0  0  0  0
   -5.9610    5.5942   -3.0961 C   0  0  0  0  0  0
   -4.9458    4.7378   -3.1087 F   0  0  0  0  0  0
   -6.0880    6.0842   -1.8640 F   0  0  0  0  0  0
   -7.0540    4.9043   -3.4069 F   0  0  0  0  0  0
   -5.3395    9.6189   -7.2709 C   0  0  0  0  0  0
   -6.3826   10.0424   -8.1503 C   0  0  0  0  0  0
   -5.7954   10.9342   -8.9812 C   0  0  0  0  0  0
   -4.4621   11.0055   -8.6385 N   0  0  0  0  0  0
   -4.1965   10.2135   -7.5717 N   0  0  0  0  0  0
   -3.3858   11.7170   -9.3119 C   0  0  0  0  0  0
   -3.1375   13.1558   -8.7925 C   0  0  2  0  0  0
   -2.6306   13.2051   -7.3282 C   0  0  0  0  0  0
   -2.4236   14.5893   -6.7937 N   0  3  0  0  0  0
   -1.4741   15.4289   -7.6021 C   0  0  0  0  0  0
   -1.3723   16.8505   -7.0230 C   0  0  0  0  0  0
   -0.9721   16.8358   -5.5409 C   0  0  0  0  0  0
   -2.0001   15.9938   -4.7661 C   0  0  0  0  0  0
   -2.0791   14.5657   -5.3376 C   0  0  0  0  0  0
   -4.3246   13.9184   -8.9249 O   0  0  0  0  0  0
   -6.4886   11.6150  -10.1386 C   0  0  0  0  0  0
   -8.0130   11.2817  -10.1372 C   0  0  0  0  0  0
   -8.2608    9.8938   -9.6765 N   0  0  1  0  0  0
   -7.8218    9.6209   -8.2902 C   0  0  0  0  0  0
   -9.5436    8.9486  -10.3488 S   0  0  0  0  0  0
   -9.3215    7.5518   -9.9428 O   0  0  0  0  0  0
   -9.6703    9.2816  -11.7737 O   0  0  0  0  0  0
  -11.0360    9.5801   -9.4797 C   0  0  0  0  0  0
   -7.2687   13.5367   -0.9065 O   0  0  0  0  0  0
   -9.7090   15.7941   -1.2903 H   0  0  0  0  0  0
   -8.4231   15.3786   -2.4188 H   0  0  0  0  0  0
   -8.0416   16.1254   -0.9011 H   0  0  0  0  0  0
   -9.6720   14.5801    1.0961 H   0  0  0  0  0  0
   -8.6407   13.1693    1.3299 H   0  0  0  0  0  0
   -7.9224   14.7363    1.2228 H   0  0  0  0  0  0
  -10.5825   13.4056   -1.2241 H   0  0  0  0  0  0
   -8.5266   11.2752   -0.5091 H   0  0  0  0  0  0
   -9.9178   11.7664    0.4332 H   0  0  0  0  0  0
  -11.4780   10.8465   -1.2272 H   0  0  0  0  0  0
  -10.3120    9.6230   -0.7372 H   0  0  0  0  0  0
  -11.2200   11.9842   -3.4070 H   0  0  0  0  0  0
   -9.9059   11.5527   -4.4806 H   0  0  0  0  0  0
   -9.4537   13.6984   -3.3816 H   0  0  0  0  0  0
   -8.2444   12.5100   -2.9789 H   0  0  0  0  0  0
  -10.8714    8.4816   -2.6378 H   0  0  0  0  0  0
  -11.4636    9.5230   -3.9147 H   0  0  0  0  0  0
   -9.9969    7.9346   -4.9958 H   0  0  0  0  0  0
   -9.1263    9.4057   -4.9083 H   0  0  0  0  0  0
   -7.3016    9.4049   -5.5583 H   0  0  0  0  0  0
   -3.5202    7.7128   -6.5033 H   0  0  0  0  0  0
   -3.8037    6.0238   -4.7429 H   0  0  0  0  0  0
   -2.4740   11.1265   -9.2264 H   0  0  0  0  0  0
   -3.6191   11.7477  -10.3767 H   0  0  0  0  0  0
   -2.3974   13.5998   -9.4616 H   0  0  0  0  0  0
   -3.3482   12.6896   -6.6931 H   0  0  0  0  0  0
   -1.6968   12.6407   -7.2473 H   0  0  0  0  0  0
   -0.4876   14.9584   -7.6177 H   0  0  0  0  0  0
   -1.7927   15.5052   -8.6409 H   0  0  0  0  0  0
   -0.6518   17.4400   -7.5928 H   0  0  0  0  0  0
   -2.3275   17.3659   -7.1326 H   0  0  0  0  0  0
   -0.9342   17.8494   -5.1519 H   0  0  0  0  0  0
    0.0307   16.4213   -5.4288 H   0  0  0  0  0  0
   -2.9801   16.4614   -4.8171 H   0  0  0  0  0  0
   -1.7403   15.9551   -3.7068 H   0  0  0  0  0  0
   -2.8333   13.9996   -4.7948 H   0  0  0  0  0  0
   -1.1362   14.0466   -5.1923 H   0  0  0  0  0  0
   -4.1037   14.8397   -8.9089 H   0  0  0  0  0  0
   -6.3432   12.6959  -10.1003 H   0  0  0  0  0  0
   -6.0425   11.2713  -11.0739 H   0  0  0  0  0  0
   -8.5443   11.9623   -9.4648 H   0  0  0  0  0  0
   -8.4329   11.4432  -11.1323 H   0  0  0  0  0  0
   -7.9391    8.5590   -8.0635 H   0  0  0  0  0  0
   -8.4628   10.1629   -7.5959 H   0  0  0  0  0  0
  -11.9064    9.0318   -9.8297 H   0  0  0  0  0  0
  -10.9224    9.4133   -8.4095 H   0  0  0  0  0  0
  -11.1648   10.6395   -9.6875 H   0  0  0  0  0  0
   -6.6676   14.1799   -0.5549 H   0  0  0  0  0  0
   -3.3230   15.0557   -6.8661 H   0  0  0  0  0  0
   -8.9971   10.2459   -2.6331 H   0  0  0  0  0  0
  1  2  1  0  0  0
  1 47  1  0  0  0
  1 48  1  0  0  0
  1 49  1  0  0  0
  2  3  1  0  0  0
  2  4  1  0  0  0
  2 46  1  0  0  0
  3 50  1  0  0  0
  3 51  1  0  0  0
  3 52  1  0  0  0
  4  9  1  0  0  0
  4  5  1  0  0  0
  4 53  1  0  0  0
  5  6  1  0  0  0
  5 54  1  0  0  0
  5 55  1  0  0  0
  6  7  1  0  0  0
  6 56  1  0  0  0
  6 57  1  0  0  0
  7  8  1  0  0  0
  7 10  1  0  0  0
  7 96  1  0  0  0
  8  9  1  0  0  0
  8 58  1  0  0  0
  8 59  1  0  0  0
  9 60  1  0  0  0
  9 61  1  0  0  0
 10 11  1  0  0  0
 10 62  1  0  0  0
 10 63  1  0  0  0
 11 12  1  0  0  0
 11 64  1  0  0  0
 11 65  1  0  0  0
 12 13  1  0  0  0
 13 18  1  0  0  0
 13 14  2  0  0  0
 14 15  1  0  0  0
 14 66  1  0  0  0
 15 16  2  0  0  0
 15 23  1  0  0  0
 16 17  1  0  0  0
 16 67  1  0  0  0
 17 18  2  0  0  0
 17 68  1  0  0  0
 18 19  1  0  0  0
 19 20  1  0  0  0
 19 21  1  0  0  0
 19 22  1  0  0  0
 23 27  2  0  0  0
 23 24  1  0  0  0
 24 41  1  0  0  0
 24 25  2  0  0  0
 25 26  1  0  0  0
 25 38  1  0  0  0
 26 27  1  0  0  0
 26 28  1  0  0  0
 28 29  1  0  0  0
 28 69  1  0  0  0
 28 70  1  0  0  0
 29 30  1  0  0  0
 29 37  1  0  0  0
 29 71  1  0  0  0
 30 31  1  0  0  0
 30 72  1  0  0  0
 30 73  1  0  0  0
 31 36  1  0  0  0
 31 32  1  0  0  0
 31 95  1  0  0  0
 32 33  1  0  0  0
 32 74  1  0  0  0
 32 75  1  0  0  0
 33 34  1  0  0  0
 33 76  1  0  0  0
 33 77  1  0  0  0
 34 35  1  0  0  0
 34 78  1  0  0  0
 34 79  1  0  0  0
 35 36  1  0  0  0
 35 80  1  0  0  0
 35 81  1  0  0  0
 36 82  1  0  0  0
 36 83  1  0  0  0
 37 84  1  0  0  0
 38 39  1  0  0  0
 38 85  1  0  0  0
 38 86  1  0  0  0
 39 40  1  0  0  0
 39 87  1  0  0  0
 39 88  1  0  0  0
 40 41  1  0  0  0
 40 42  1  0  0  0
 41 89  1  0  0  0
 41 90  1  0  0  0
 42 43  2  0  0  0
 42 44  2  0  0  0
 42 45  1  0  0  0
 45 91  1  0  0  0
 45 92  1  0  0  0
 45 93  1  0  0  0
 46 94  1  0  0  0
M  CHG  2   7   1  31   1
M  END
> <i_epik_Tot_Q>
2

> <i_epik_Tot_abs_Q>
2

> <i_f3d_flags>
0

> <i_i_glide_confnum>
260

> <i_i_glide_lignum>
41

> <i_i_glide_posenum>
306

> <i_i_glide_rotatable_bonds>
14

> <i_lp_mmshare_version>
63125

> <i_m_Source_File_Index>
39

> <i_m_source_file_index>
39

> <b_lp_Chiralities_Consistent>
1

> <b_m_subgroup_collapsed>
0

> <r_canvas_Affinity>
0.9

> <r_epik_Charging_Adjusted_Penalty>
0.0138941773423774

> <r_epik_Ionization_Penalty>
  0.0140

> <r_epik_Ionization_Penalty_Charging>
  0.0139

> <r_epik_Ionization_Penalty_Neutral>
  0.0001

> <r_epik_State_Penalty>
  0.0000

> <r_i_docking_score>
-8.11741830829902

> <r_i_glide_ecoul>
-7.89883041381836

> <r_i_glide_eff_state_penalty>
0

> <r_i_glide_einternal>
8.40029811859131

> <r_i_glide_emodel>
-80.2964421950371

> <r_i_glide_energy>
-55.5761184692383

> <r_i_glide_erotb>
0.41370895237718

> <r_i_glide_esite>
-0.0574233544349101

> <r_i_glide_evdw>
-47.6772880554199

> <r_i_glide_gscore>
-8.11741830829902

> <r_i_glide_hbond>
-0.32

> <r_i_glide_ligand_efficiency>
-0.176465615397805

> <r_i_glide_ligand_efficiency_ln>
-1.68109777508042

> <r_i_glide_ligand_efficiency_sa>
-0.632284746751692

> <r_i_glide_lipo>
-3.36419561680241

> <r_i_glide_metal>
0

> <r_i_glide_rewards>
-1.22081932459513

> <r_i_glide_rmsd>
0.0408723754797078

> <r_lp_Energy>
54.207176

> <r_lp_tautomer_probability>
1

> <s_epik_cmdline>
J2VwaWtfcHl0aG9uJywgJy1waHQnLCAnMC4wJywgJy1waCcsICc3LjAnLCAnLXRuJywgJzgnLCAnLW1hJywgJzUwMCcsICctaW1hZScsICc8aW5maWxlLm1hZT4nLCAnLW9tYWUnLCAnPG91dGZpbGUubWFlPic=

> <s_epik_input>
W0NIM11DKFtDSDNdKShbT0hdKVtDSF0xW0NIMl1bQ0gyXU4oW0NIMl1bQ0gyXTEpW0NIMl1bQ0gyXVNjMltjSF1jKFtjSF1bY0hdYzJDKEYpKEYpRiktYzNubihjKGMzNClbQ0gyXVtDSDJdTihbQ0gyXTQpUyg9TykoPU8pW0NIM10pW0NIMl1bQ0BASF0oW09IXSlbQ0gyXU41W0NIMl1bQ0gyXVtDSDJdW0NIMl1bQ0gyXTU=

> <s_glide_core_atoms_lig>
14 13 18 19 20 21 22 17 16 15 23 27 26 25 24 38 39 40 41 42 43 44 45 28 29 37 30 31 36 35 34 33 32

> <s_glide_core_atoms_ref>
9 8 13 14 34 35 36 12 11 10 16 39 38 18 17 19 20 40 21 45 42 43 22 23 24 44 25 41 26 27 28 29 30

> <s_glide_core_constrain_type>
snapped_core_restrain

> <s_glide_core_smarts>
c1cc(C(F)(F)F)ccc1-c2nn(c(c23)CCN(C3)S(=O)(=O)C)CC(O)C[N]4CCCCC4

> <s_i_glide_gridfile>
glide-grid_1_zrqq

> <s_lp_Force_Field>
S-OPLS

> <s_lp_Variant>
CatS_255-1

> <s_m_Source_File>
glide-dock_SP_1_zrqq_gc4FEset_pv.maegz

> <s_m_Source_Path>
/gpfs/projects/drug_discovery/mergetbj/GRAILS/CatS/glide-dock_SP_1_zrqq_gc4FEset

> <s_m_entry_id>
790

> <s_m_entry_name>
CatS_FEset_compounds_D3R_GC4_answers.39

> <s_m_job_name>
glide-dock_SP_1_zrqq_gc4FEset

> <s_m_source_file>
ligprep_2.maegz

> <s_m_subgroup_title>
glide-dock_SP_1_zrqq_gc4FEset_pv

> <s_m_subgroupid>
glide-dock_SP_1_zrqq_gc4FEset_pv

$$$$
CatS_165
                    3D
 Schrodinger Suite 2023-3.
102106  0  0  1  0            999 V2000
  -12.5597    8.7754   -8.4851 C   0  0  0  0  0  0
  -12.2569   10.1075   -9.2011 C   0  0  0  0  0  0
  -12.7546   10.1377  -10.6643 C   0  0  0  0  0  0
  -10.8274   10.5005   -9.0595 N   0  0  0  0  0  0
  -10.6248   11.7496   -8.2637 C   0  0  0  0  0  0
  -10.2282   12.9483   -9.1438 C   0  0  0  0  0  0
   -9.7177   11.5881   -7.0257 C   0  0  0  0  0  0
   -9.8483    9.7626   -9.6749 C   0  0  0  0  0  0
  -10.0733    8.7814  -10.3917 O   0  0  0  0  0  0
   -8.5785   10.1615   -9.4681 N   0  0  0  0  0  0
   -7.8306   10.6648  -10.6397 C   0  0  0  0  0  0
   -6.5782   11.4936  -10.2700 C   0  0  0  0  0  0
   -5.8747   10.8762   -9.1127 C   0  0  0  0  0  0
   -6.4177    9.9350   -8.3038 C   0  0  0  0  0  0
   -5.3969    9.6617   -7.3484 C   0  0  0  0  0  0
   -4.2910   10.3532   -7.6057 N   0  0  0  0  0  0
   -4.5783   11.0956   -8.7014 N   0  0  0  0  0  0
   -3.5454   11.9057   -9.3314 C   0  0  0  0  0  0
   -3.3077   13.2768   -8.6684 C   0  0  2  0  0  0
   -2.6410   13.1728   -7.2851 C   0  0  0  0  0  0
   -2.4180   14.5100   -6.6833 N   0  3  0  0  0  0
   -1.2550   15.2399   -7.2591 C   0  0  0  0  0  0
   -1.1469   16.6620   -6.6808 C   0  0  0  0  0  0
   -1.0744   16.6302   -5.1480 C   0  0  0  0  0  0
   -2.2736   15.8568   -4.5821 C   0  0  0  0  0  0
   -2.3620   14.4515   -5.2008 C   0  0  0  0  0  0
   -4.5243   13.9889   -8.5221 O   0  0  0  0  0  0
   -5.4503    8.7338   -6.2197 C   0  0  0  0  0  0
   -4.4052    7.8170   -5.9912 C   0  0  0  0  0  0
   -4.5403    6.8244   -5.0024 C   0  0  0  0  0  0
   -5.7242    6.7288   -4.2336 C   0  0  0  0  0  0
   -6.7413    7.7029   -4.4089 C   0  0  0  0  0  0
   -6.5931    8.6998   -5.3959 C   0  0  0  0  0  0
   -8.2520    7.6036   -3.4818 S   0  0  0  0  0  0
   -8.9258    9.2652   -3.2122 C   0  0  0  0  0  0
   -8.0717   10.0708   -2.2225 C   0  0  0  0  0  0
   -8.6027   11.4403   -1.9967 N   0  3  1  0  0  0
   -9.8109   11.4823   -1.1272 C   0  0  0  0  0  0
  -10.3904   12.9071   -1.0440 C   0  0  0  0  0  0
   -9.3349   13.9200   -0.5753 C   0  0  2  0  0  0
   -8.0720   13.8099   -1.4394 C   0  0  0  0  0  0
   -7.5607   12.3629   -1.4859 C   0  0  0  0  0  0
   -9.0234   13.6801    0.6988 F   0  0  0  0  0  0
   -5.9211    5.5473   -3.2874 C   0  0  0  0  0  0
   -6.1038    5.9560   -2.0308 F   0  0  0  0  0  0
   -6.9722    4.8302   -3.6845 F   0  0  0  0  0  0
   -4.8709    4.7367   -3.3059 F   0  0  0  0  0  0
   -7.7790    9.3349   -8.5424 C   0  0  0  0  0  0
  -13.6206    8.5312   -8.5490 H   0  0  0  0  0  0
  -12.3002    8.8337   -7.4289 H   0  0  0  0  0  0
  -12.0081    7.9367   -8.9050 H   0  0  0  0  0  0
  -12.9019   10.8359   -8.7115 H   0  0  0  0  0  0
  -13.8410   10.0524  -10.7048 H   0  0  0  0  0  0
  -12.4875   11.0771  -11.1524 H   0  0  0  0  0  0
  -12.3594    9.3237  -11.2745 H   0  0  0  0  0  0
  -11.5732   12.0484   -7.8199 H   0  0  0  0  0  0
  -10.2605   13.8747   -8.5714 H   0  0  0  0  0  0
   -9.2197   12.8589   -9.5452 H   0  0  0  0  0  0
  -10.9169   13.0589   -9.9849 H   0  0  0  0  0  0
   -9.8770   12.4101   -6.3275 H   0  0  0  0  0  0
   -9.9376   10.6639   -6.4905 H   0  0  0  0  0  0
   -8.6590   11.6057   -7.2730 H   0  0  0  0  0  0
   -7.5167    9.7893  -11.2106 H   0  0  0  0  0  0
   -8.4733   11.2340  -11.3136 H   0  0  0  0  0  0
   -5.9207   11.5627  -11.1357 H   0  0  0  0  0  0
   -6.8664   12.5116  -10.0094 H   0  0  0  0  0  0
   -2.6187   11.3290   -9.3445 H   0  0  0  0  0  0
   -3.8122   12.0487  -10.3784 H   0  0  0  0  0  0
   -2.6690   13.8482   -9.3418 H   0  0  0  0  0  0
   -3.2861   12.5891   -6.6268 H   0  0  0  0  0  0
   -1.6966   12.6270   -7.3472 H   0  0  0  0  0  0
   -0.3375   14.6852   -7.0521 H   0  0  0  0  0  0
   -1.3423   15.3091   -8.3426 H   0  0  0  0  0  0
   -0.2653   17.1619   -7.0830 H   0  0  0  0  0  0
   -2.0060   17.2549   -6.9966 H   0  0  0  0  0  0
   -1.0580   17.6445   -4.7474 H   0  0  0  0  0  0
   -0.1456   16.1562   -4.8286 H   0  0  0  0  0  0
   -3.1945   16.4087   -4.7824 H   0  0  0  0  0  0
   -2.1906   15.7808   -3.4979 H   0  0  0  0  0  0
   -3.2634   13.9593   -4.8414 H   0  0  0  0  0  0
   -1.5112   13.8425   -4.8879 H   0  0  0  0  0  0
   -4.9345   14.0701   -9.3706 H   0  0  0  0  0  0
   -3.5182    7.8420   -6.6076 H   0  0  0  0  0  0
   -3.7471    6.1033   -4.8794 H   0  0  0  0  0  0
   -7.3847    9.4096   -5.5723 H   0  0  0  0  0  0
   -9.0301    9.7870   -4.1617 H   0  0  0  0  0  0
   -9.9346    9.1313   -2.8233 H   0  0  0  0  0  0
   -7.9904    9.5454   -1.2711 H   0  0  0  0  0  0
   -7.0584   10.1343   -2.6243 H   0  0  0  0  0  0
  -10.5823   10.8080   -1.4963 H   0  0  0  0  0  0
   -9.5490   11.1362   -0.1253 H   0  0  0  0  0  0
  -10.7709   13.2064   -2.0215 H   0  0  0  0  0  0
  -11.2466   12.9222   -0.3679 H   0  0  0  0  0  0
   -9.7354   14.9344   -0.6053 H   0  0  0  0  0  0
   -7.2926   14.4612   -1.0486 H   0  0  0  0  0  0
   -8.2859   14.1573   -2.4508 H   0  0  0  0  0  0
   -7.2705   12.0369   -0.4919 H   0  0  0  0  0  0
   -6.6684   12.3110   -2.1042 H   0  0  0  0  0  0
   -8.3242    9.1944   -7.6104 H   0  0  0  0  0  0
   -7.6755    8.3371   -8.9734 H   0  0  0  0  0  0
   -3.2492   15.0363   -6.9223 H   0  0  0  0  0  0
   -8.8710   11.7953   -2.9031 H   0  0  0  0  0  0
  1  2  1  0  0  0
  1 49  1  0  0  0
  1 50  1  0  0  0
  1 51  1  0  0  0
  2  3  1  0  0  0
  2  4  1  0  0  0
  2 52  1  0  0  0
  3 53  1  0  0  0
  3 54  1  0  0  0
  3 55  1  0  0  0
  4  5  1  0  0  0
  4  8  1  0  0  0
  5  6  1  0  0  0
  5  7  1  0  0  0
  5 56  1  0  0  0
  6 57  1  0  0  0
  6 58  1  0  0  0
  6 59  1  0  0  0
  7 60  1  0  0  0
  7 61  1  0  0  0
  7 62  1  0  0  0
  8  9  2  0  0  0
  8 10  1  0  0  0
 10 48  1  0  0  0
 10 11  1  0  0  0
 11 12  1  0  0  0
 11 63  1  0  0  0
 11 64  1  0  0  0
 12 13  1  0  0  0
 12 65  1  0  0  0
 12 66  1  0  0  0
 13 17  1  0  0  0
 13 14  2  0  0  0
 14 15  1  0  0  0
 14 48  1  0  0  0
 15 16  2  0  0  0
 15 28  1  0  0  0
 16 17  1  0  0  0
 17 18  1  0  0  0
 18 19  1  0  0  0
 18 67  1  0  0  0
 18 68  1  0  0  0
 19 20  1  0  0  0
 19 27  1  0  0  0
 19 69  1  0  0  0
 20 21  1  0  0  0
 20 70  1  0  0  0
 20 71  1  0  0  0
 21 26  1  0  0  0
 21 22  1  0  0  0
 21101  1  0  0  0
 22 23  1  0  0  0
 22 72  1  0  0  0
 22 73  1  0  0  0
 23 24  1  0  0  0
 23 74  1  0  0  0
 23 75  1  0  0  0
 24 25  1  0  0  0
 24 76  1  0  0  0
 24 77  1  0  0  0
 25 26  1  0  0  0
 25 78  1  0  0  0
 25 79  1  0  0  0
 26 80  1  0  0  0
 26 81  1  0  0  0
 27 82  1  0  0  0
 28 33  1  0  0  0
 28 29  2  0  0  0
 29 30  1  0  0  0
 29 83  1  0  0  0
 30 31  2  0  0  0
 30 84  1  0  0  0
 31 32  1  0  0  0
 31 44  1  0  0  0
 32 33  2  0  0  0
 32 34  1  0  0  0
 33 85  1  0  0  0
 34 35  1  0  0  0
 35 36  1  0  0  0
 35 86  1  0  0  0
 35 87  1  0  0  0
 36 37  1  0  0  0
 36 88  1  0  0  0
 36 89  1  0  0  0
 37 42  1  0  0  0
 37 38  1  0  0  0
 37102  1  0  0  0
 38 39  1  0  0  0
 38 90  1  0  0  0
 38 91  1  0  0  0
 39 40  1  0  0  0
 39 92  1  0  0  0
 39 93  1  0  0  0
 40 41  1  0  0  0
 40 43  1  0  0  0
 40 94  1  0  0  0
 41 42  1  0  0  0
 41 95  1  0  0  0
 41 96  1  0  0  0
 42 97  1  0  0  0
 42 98  1  0  0  0
 44 45  1  0  0  0
 44 46  1  0  0  0
 44 47  1  0  0  0
 48 99  1  0  0  0
 48100  1  0  0  0
M  CHG  2  21   1  37   1
M  END
> <i_epik_Tot_Q>
2

> <i_epik_Tot_abs_Q>
2

> <i_f3d_flags>
0

> <i_i_glide_confnum>
821

> <i_i_glide_lignum>
25

> <i_i_glide_posenum>
7

> <i_i_glide_rotatable_bonds>
15

> <i_lp_mmshare_version>
63125

> <i_m_Source_File_Index>
23

> <i_m_source_file_index>
23

> <b_lp_Chiralities_Consistent>
1

> <b_m_subgroup_collapsed>
0

> <r_canvas_Affinity>
0.93

> <r_epik_Charging_Adjusted_Penalty>
0.135119144620326

> <r_epik_Ionization_Penalty>
  0.0711

> <r_epik_Ionization_Penalty_Charging>
  0.0709

> <r_epik_Ionization_Penalty_Neutral>
  0.0002

> <r_epik_State_Penalty>
  0.0642

> <r_i_docking_score>
-8.04673926597115

> <r_i_glide_ecoul>
-5.25549459457397

> <r_i_glide_eff_state_penalty>
0.0642

> <r_i_glide_einternal>
9.4976863861084

> <r_i_glide_emodel>
-72.833674423328

> <r_i_glide_energy>
-52.0447211265564

> <r_i_glide_erotb>
0.351995468524461

> <r_i_glide_esite>
0

> <r_i_glide_evdw>
-46.7892265319824

> <r_i_glide_gscore>
-8.11093926597115

> <r_i_glide_hbond>
-0.0858991025974309

> <r_i_glide_ligand_efficiency>
-0.167640401374399

> <r_i_glide_ligand_efficiency_ln>
-1.65190047545819

> <r_i_glide_ligand_efficiency_sa>
-0.609245650269961

> <r_i_glide_lipo>
-3.54801330123405

> <r_i_glide_metal>
0

> <r_i_glide_rewards>
-1.70123681487891

> <r_i_glide_rmsd>
0.321336102952812

> <r_lp_Energy>
70.800875

> <r_lp_tautomer_probability>
1

> <s_epik_cmdline>
J2VwaWtfcHl0aG9uJywgJy1waHQnLCAnMC4wJywgJy1waCcsICc3LjAnLCAnLXRuJywgJzgnLCAnLW1hJywgJzUwMCcsICctaW1hZScsICc8aW5maWxlLm1hZT4nLCAnLW9tYWUnLCAnPG91dGZpbGUubWFlPic=

> <s_epik_input>
W0NIMl0xW0NIMl1bQ0gyXVtDSDJdW0NIMl1OMVtDSDJdW0NASF0oW09IXSlbQ0gyXW4ybmMoYyhjMjMpW0NIMl1OKFtDSDJdW0NIMl0zKUMoPU8pTihbQ0hdKFtDSDNdKVtDSDNdKVtDSF0oW0NIM10pW0NIM10pLWM0W2NIXVtjSF1jKEMoRikoRilGKWMoW2NIXTQpU1tDSDJdW0NIMl1ONVtDSDJdW0NIMl1bQ0hdKEYpW0NIMl1bQ0gyXTU=

> <s_glide_core_atoms_lig>
29 30 31 44 45 46 47 32 33 28 15 16 17 13 14 12 11 10 48 18 19 27 20 21 22 23 24 25 26

> <s_glide_core_atoms_ref>
9 8 13 14 34 35 36 12 11 10 16 39 38 18 17 19 20 40 21 23 24 44 25 41 26 27 28 29 30

> <s_glide_core_constrain_type>
filter_based_core_restrain

> <s_glide_core_smarts>
c1cc(C(F)(F)F)ccc1-c2nn(c(c23)CCNC3)CC(O)C[N]4CCCCC4

> <s_i_glide_gridfile>
glide-grid_1_zrqq

> <s_lp_Force_Field>
S-OPLS

> <s_lp_Variant>
CatS_165-1

> <s_m_Source_File>
glide-dock_SP_1_zrqq_gc4FEset_pv.maegz

> <s_m_Source_Path>
/gpfs/projects/drug_discovery/mergetbj/GRAILS/CatS/glide-dock_SP_1_zrqq_gc4FEset

> <s_m_entry_id>
791

> <s_m_entry_name>
CatS_FEset_compounds_D3R_GC4_answers.23

> <s_m_job_name>
glide-dock_SP_1_zrqq_gc4FEset

> <s_m_source_file>
ligprep_2.maegz

> <s_m_subgroup_title>
glide-dock_SP_1_zrqq_gc4FEset_pv

> <s_m_subgroupid>
glide-dock_SP_1_zrqq_gc4FEset_pv

$$$$
CatS_155
                    3D
 Schrodinger Suite 2023-3.
 92 96  0  0  1  0            999 V2000
   -0.2951   19.9571   -3.4144 C   0  0  0  0  0  0
   -0.2753   18.4886   -3.8168 C   0  0  0  0  0  0
    0.2572   17.6507   -3.0912 O   0  0  0  0  0  0
   -0.8625   18.1820   -4.9855 N   0  0  0  0  0  0
   -0.9563   16.8313   -5.5361 C   0  0  2  0  0  0
   -1.3877   16.8549   -7.0208 C   0  0  0  0  0  0
   -1.4902   15.4246   -7.6025 C   0  0  0  0  0  0
   -2.4516   14.5849   -6.7885 N   0  3  2  0  0  0
   -2.0775   14.5535   -5.3300 C   0  0  0  0  0  0
   -1.9923   15.9845   -4.7633 C   0  0  0  0  0  0
   -2.6267   13.1853   -7.3171 C   0  0  0  0  0  0
   -3.1410   13.1356   -8.7754 C   0  0  1  0  0  0
   -3.3898   11.7019   -9.3066 C   0  0  0  0  0  0
   -4.4693   10.9851   -8.6449 N   0  0  0  0  0  0
   -5.8011   10.9250   -8.9841 C   0  0  0  0  0  0
   -6.3882   10.0270   -8.1358 C   0  0  0  0  0  0
   -5.3440    9.6153   -7.2655 C   0  0  0  0  0  0
   -4.1932   10.2037   -7.5733 N   0  0  0  0  0  0
   -5.4319    8.6555   -6.1547 C   0  0  0  0  0  0
   -4.4145    7.7263   -5.9031 C   0  0  0  0  0  0
   -4.5678    6.7622   -4.8878 C   0  0  0  0  0  0
   -5.7383    6.7211   -4.1016 C   0  0  0  0  0  0
   -6.7411    7.6951   -4.3121 C   0  0  0  0  0  0
   -6.5859    8.6339   -5.3561 C   0  0  0  0  0  0
   -8.1933    7.7443   -3.2942 S   0  0  0  0  0  0
   -9.1473    9.2558   -3.6235 C   0  0  0  0  0  0
   -9.7944    9.8146   -2.3392 C   0  0  0  0  0  0
   -9.3914   11.1971   -2.0777 N   0  0  2  0  0  0
   -7.9639   11.2729   -1.7506 C   0  0  0  0  0  0
   -7.5368   12.7350   -1.5404 C   0  0  0  0  0  0
   -8.3559   13.3856   -0.4196 C   0  0  0  0  0  0
   -9.8564   13.2131   -0.7095 C   0  0  0  0  0  0
  -10.1852   11.7262   -0.9626 C   0  0  0  0  0  0
  -10.2015   13.9410   -1.7857 F   0  0  0  0  0  0
  -10.5617   13.6545    0.3410 F   0  0  0  0  0  0
   -5.9148    5.5929   -3.0878 C   0  0  0  0  0  0
   -4.8978    4.7360   -3.1110 F   0  0  0  0  0  0
   -6.0266    6.0744   -1.8527 F   0  0  0  0  0  0
   -7.0070    4.8992   -3.3908 F   0  0  0  0  0  0
   -7.8302    9.6254   -8.2722 C   0  0  0  0  0  0
   -8.2408    9.8669   -9.6765 N   0  0  2  0  0  0
   -8.0057   11.2572  -10.1577 C   0  0  0  0  0  0
   -6.4915   11.6149  -10.1349 C   0  0  0  0  0  0
   -9.5385    8.9205  -10.3372 S   0  0  0  0  0  0
   -9.3331    7.5363   -9.9010 O   0  0  0  0  0  0
   -9.6616    9.2251  -11.7711 O   0  0  0  0  0  0
  -11.0407    9.5751   -9.4814 C   0  0  0  0  0  0
   -4.3155   13.9075   -8.9215 O   0  0  0  0  0  0
    0.2145   20.5680   -4.1606 H   0  0  0  0  0  0
    0.2086   20.0989   -2.4575 H   0  0  0  0  0  0
   -1.3208   20.3136   -3.3136 H   0  0  0  0  0  0
   -1.2746   18.9326   -5.5201 H   0  0  0  0  0  0
    0.0341   16.3746   -5.4462 H   0  0  0  0  0  0
   -2.3589   17.3540   -7.1136 H   0  0  0  0  0  0
   -0.6784   17.4429   -7.6068 H   0  0  0  0  0  0
   -0.4944   14.9684   -7.6304 H   0  0  0  0  0  0
   -1.8234   15.5138   -8.6428 H   0  0  0  0  0  0
   -1.1229   14.0378   -5.1839 H   0  0  0  0  0  0
   -2.8261   13.9892   -4.7646 H   0  0  0  0  0  0
   -1.7304   15.9464   -3.7063 H   0  0  0  0  0  0
   -2.9758   16.4615   -4.8214 H   0  0  0  0  0  0
   -1.6903   12.6305   -7.2396 H   0  0  0  0  0  0
   -3.3448   12.6569   -6.6916 H   0  0  0  0  0  0
   -2.4160   13.5897   -9.4500 H   0  0  0  0  0  0
   -3.6305   11.7385  -10.3748 H   0  0  0  0  0  0
   -2.4778   11.1067   -9.2249 H   0  0  0  0  0  0
   -3.5147    7.7285   -6.4963 H   0  0  0  0  0  0
   -3.7789    6.0460   -4.7403 H   0  0  0  0  0  0
   -7.3593    9.3451   -5.5621 H   0  0  0  0  0  0
   -8.5035   10.0102   -4.0636 H   0  0  0  0  0  0
   -9.9103    9.0305   -4.3679 H   0  0  0  0  0  0
  -10.8781    9.7863   -2.4589 H   0  0  0  0  0  0
   -9.5704    9.1807   -1.4776 H   0  0  0  0  0  0
   -7.7418   10.6821   -0.8629 H   0  0  0  0  0  0
   -7.3718   10.8494   -2.5628 H   0  0  0  0  0  0
   -6.4703   12.7787   -1.3039 H   0  0  0  0  0  0
   -7.6703   13.2950   -2.4707 H   0  0  0  0  0  0
   -8.0931   12.9368    0.5392 H   0  0  0  0  0  0
   -8.1096   14.4429   -0.3474 H   0  0  0  0  0  0
  -11.2459   11.6289   -1.1884 H   0  0  0  0  0  0
  -10.0006   11.1362   -0.0678 H   0  0  0  0  0  0
   -7.9760    8.5750   -8.0122 H   0  0  0  0  0  0
   -8.4681   10.2042   -7.5972 H   0  0  0  0  0  0
   -8.5640   11.9411   -9.5129 H   0  0  0  0  0  0
   -8.4045   11.3856  -11.1659 H   0  0  0  0  0  0
   -6.3730   12.7030  -10.0690 H   0  0  0  0  0  0
   -6.0271   11.2987  -11.0732 H   0  0  0  0  0  0
  -11.9221    9.0435   -9.8420 H   0  0  0  0  0  0
  -10.9496    9.4249   -8.4065 H   0  0  0  0  0  0
  -11.1517   10.6350   -9.6979 H   0  0  0  0  0  0
   -4.1040   14.8233   -8.8261 H   0  0  0  0  0  0
   -3.3706   15.0181   -6.8526 H   0  0  0  0  0  0
  1  2  1  0  0  0
  1 49  1  0  0  0
  1 50  1  0  0  0
  1 51  1  0  0  0
  2  3  2  0  0  0
  2  4  1  0  0  0
  4  5  1  0  0  0
  4 52  1  0  0  0
  5 10  1  0  0  0
  5  6  1  0  0  0
  5 53  1  0  0  0
  6  7  1  0  0  0
  6 54  1  0  0  0
  6 55  1  0  0  0
  7  8  1  0  0  0
  7 56  1  0  0  0
  7 57  1  0  0  0
  8  9  1  0  0  0
  8 11  1  0  0  0
  8 92  1  0  0  0
  9 10  1  0  0  0
  9 58  1  0  0  0
  9 59  1  0  0  0
 10 60  1  0  0  0
 10 61  1  0  0  0
 11 12  1  0  0  0
 11 62  1  0  0  0
 11 63  1  0  0  0
 12 13  1  0  0  0
 12 48  1  0  0  0
 12 64  1  0  0  0
 13 14  1  0  0  0
 13 65  1  0  0  0
 13 66  1  0  0  0
 14 18  1  0  0  0
 14 15  1  0  0  0
 15 43  1  0  0  0
 15 16  2  0  0  0
 16 17  1  0  0  0
 16 40  1  0  0  0
 17 18  2  0  0  0
 17 19  1  0  0  0
 19 24  1  0  0  0
 19 20  2  0  0  0
 20 21  1  0  0  0
 20 67  1  0  0  0
 21 22  2  0  0  0
 21 68  1  0  0  0
 22 23  1  0  0  0
 22 36  1  0  0  0
 23 24  2  0  0  0
 23 25  1  0  0  0
 24 69  1  0  0  0
 25 26  1  0  0  0
 26 27  1  0  0  0
 26 70  1  0  0  0
 26 71  1  0  0  0
 27 28  1  0  0  0
 27 72  1  0  0  0
 27 73  1  0  0  0
 28 33  1  0  0  0
 28 29  1  0  0  0
 29 30  1  0  0  0
 29 74  1  0  0  0
 29 75  1  0  0  0
 30 31  1  0  0  0
 30 76  1  0  0  0
 30 77  1  0  0  0
 31 32  1  0  0  0
 31 78  1  0  0  0
 31 79  1  0  0  0
 32 33  1  0  0  0
 32 34  1  0  0  0
 32 35  1  0  0  0
 33 80  1  0  0  0
 33 81  1  0  0  0
 36 37  1  0  0  0
 36 38  1  0  0  0
 36 39  1  0  0  0
 40 41  1  0  0  0
 40 82  1  0  0  0
 40 83  1  0  0  0
 41 42  1  0  0  0
 41 44  1  0  0  0
 42 43  1  0  0  0
 42 84  1  0  0  0
 42 85  1  0  0  0
 43 86  1  0  0  0
 43 87  1  0  0  0
 44 45  2  0  0  0
 44 46  2  0  0  0
 44 47  1  0  0  0
 47 88  1  0  0  0
 47 89  1  0  0  0
 47 90  1  0  0  0
 48 91  1  0  0  0
M  CHG  1   8   1
M  END
> <i_epik_Tot_Q>
1

> <i_epik_Tot_abs_Q>
1

> <i_f3d_flags>
0

> <i_i_glide_confnum>
2317

> <i_i_glide_lignum>
21

> <i_i_glide_posenum>
400

> <i_i_glide_rotatable_bonds>
14

> <i_lp_mmshare_version>
63125

> <i_m_Source_File_Index>
19

> <i_m_source_file_index>
19

> <b_lp_Chiralities_Consistent>
1

> <b_m_subgroup_collapsed>
0

> <r_canvas_Affinity>
0.05

> <r_epik_Charging_Adjusted_Penalty>
0.0289602520811189

> <r_epik_Ionization_Penalty>
  0.0990

> <r_epik_Ionization_Penalty_Charging>
  0.0290

> <r_epik_Ionization_Penalty_Neutral>
  0.0701

> <r_epik_State_Penalty>
  0.0000

> <r_i_docking_score>
-8.03547103931371

> <r_i_glide_ecoul>
-6.17635345458984

> <r_i_glide_eff_state_penalty>
0

> <r_i_glide_einternal>
7.64014339447021

> <r_i_glide_emodel>
-78.8262830796062

> <r_i_glide_energy>
-54.6815528869629

> <r_i_glide_erotb>
0.309084109975556

> <r_i_glide_esite>
-0.0635867136633573

> <r_i_glide_evdw>
-48.505199432373

> <r_i_glide_gscore>
-8.03547103931371

> <r_i_glide_hbond>
0

> <r_i_glide_ligand_efficiency>
-0.167405646652369

> <r_i_glide_ligand_efficiency_ln>
-1.64958724169259

> <r_i_glide_ligand_efficiency_sa>
-0.608392494991731

> <r_i_glide_lipo>
-3.66508311303264

> <r_i_glide_metal>
0

> <r_i_glide_rewards>
-1.26417233278614

> <r_i_glide_rmsd>
0.0356764645874366

> <r_lp_Energy>
49.747314

> <r_lp_tautomer_probability>
1

> <s_epik_cmdline>
J2VwaWtfcHl0aG9uJywgJy1waHQnLCAnMC4wJywgJy1waCcsICc3LjAnLCAnLXRuJywgJzgnLCAnLW1hJywgJzUwMCcsICctaW1hZScsICc8aW5maWxlLm1hZT4nLCAnLW9tYWUnLCAnPG91dGZpbGUubWFlPic=

> <s_epik_input>
W0NIM11DKD1PKVtOSF1bQ0hdMVtDSDJdW0NIMl1OKFtDSDJdW0NIMl0xKVtDSDJdW0NASF0oW09IXSlbQ0gyXW4ybmMoYyhjMjMpW0NIMl1OKFtDSDJdW0NIMl0zKVMoPU8pKD1PKVtDSDNdKS1jNFtjSF1bY0hdYyhDKEYpKEYpRiljKFtjSF00KVNbQ0gyXVtDSDJdTihbQ0gyXTUpW0NIMl1bQ0gyXVtDSDJdQzUoRilG

> <s_glide_core_atoms_lig>
24 23 22 36 37 38 39 21 20 19 17 18 14 15 16 43 42 41 40 44 45 46 47 13 12 48 11 8 9 10 5 6 7

> <s_glide_core_atoms_ref>
9 8 13 14 34 35 36 12 11 10 16 39 38 18 17 19 20 40 21 45 42 43 22 23 24 44 25 41 26 27 28 29 30

> <s_glide_core_constrain_type>
snapped_core_restrain

> <s_glide_core_smarts>
c1cc(C(F)(F)F)ccc1-c2nn(c(c23)CCN(C3)S(=O)(=O)C)CC(O)C[N]4CCCCC4

> <s_i_glide_gridfile>
glide-grid_1_zrqq

> <s_lp_Force_Field>
S-OPLS

> <s_lp_Variant>
CatS_155-1

> <s_m_Source_File>
glide-dock_SP_1_zrqq_gc4FEset_pv.maegz

> <s_m_Source_Path>
/gpfs/projects/drug_discovery/mergetbj/GRAILS/CatS/glide-dock_SP_1_zrqq_gc4FEset

> <s_m_entry_id>
792

> <s_m_entry_name>
CatS_FEset_compounds_D3R_GC4_answers.19

> <s_m_job_name>
glide-dock_SP_1_zrqq_gc4FEset

> <s_m_source_file>
ligprep_2.maegz

> <s_m_subgroup_title>
glide-dock_SP_1_zrqq_gc4FEset_pv

> <s_m_subgroupid>
glide-dock_SP_1_zrqq_gc4FEset_pv

$$$$
CatS_144
                    3D
 Schrodinger Suite 2023-3.
 89 93  0  0  1  0            999 V2000
   -9.9174    9.9401  -12.5178 C   0  0  0  0  0  0
   -8.7511    9.0878  -11.9973 C   0  0  1  0  0  0
   -8.7887    8.9293  -10.4597 C   0  0  0  0  0  0
   -9.2054    7.8728   -9.9802 O   0  0  0  0  0  0
   -8.2617    9.9064   -9.6825 N   0  0  0  0  0  0
   -7.9799   11.2902  -10.1292 C   0  0  0  0  0  0
   -6.4800   11.6308  -10.1126 C   0  0  0  0  0  0
   -5.7964   10.9292   -8.9780 C   0  0  0  0  0  0
   -6.3966   10.0415   -8.1434 C   0  0  0  0  0  0
   -5.3515    9.6083   -7.2717 C   0  0  0  0  0  0
   -4.1956   10.1937   -7.5752 N   0  0  0  0  0  0
   -4.4602   10.9883   -8.6410 N   0  0  0  0  0  0
   -3.3815   11.7029   -9.3078 C   0  0  0  0  0  0
   -3.1302   13.1341   -8.7790 C   0  0  2  0  0  0
   -2.6132   13.1915   -7.3194 C   0  0  0  0  0  0
   -2.4324   14.5801   -6.7959 N   0  3  0  0  0  0
   -1.4914   15.4272   -7.6056 C   0  0  0  0  0  0
   -1.3979   16.8569   -7.0425 C   0  0  0  0  0  0
   -0.9742   16.8482   -5.5683 C   0  0  0  0  0  0
   -1.9837   16.0041   -4.7770 C   0  0  0  0  0  0
   -2.0741   14.5749   -5.3450 C   0  0  0  0  0  0
   -4.3018   13.9181   -8.9140 O   0  0  0  0  0  0
   -5.4303    8.6493   -6.1650 C   0  0  0  0  0  0
   -4.3925    7.7389   -5.8861 C   0  0  0  0  0  0
   -4.5455    6.7717   -4.8733 C   0  0  0  0  0  0
   -5.7254    6.6936   -4.1107 C   0  0  0  0  0  0
   -6.7438    7.6519   -4.3482 C   0  0  0  0  0  0
   -6.5900    8.6013   -5.3774 C   0  0  0  0  0  0
   -8.2089    7.6483   -3.3958 S   0  0  0  0  0  0
   -8.7904    9.3455   -3.4341 C   0  0  0  0  0  0
   -7.7625   10.3380   -2.8309 C   0  0  0  0  0  0
   -8.2627   11.1875   -1.7182 N   0  3  2  0  0  0
   -9.7087   11.5267   -1.8122 C   0  0  0  0  0  0
  -10.1894   12.3049   -0.5986 C   0  0  0  0  0  0
   -9.3863   13.5910   -0.4416 C   0  0  2  0  0  0
   -7.8880   13.2654   -0.3802 C   0  0  0  0  0  0
   -7.4514   12.4246   -1.5896 C   0  0  0  0  0  0
   -9.7627   14.2126    0.6729 F   0  0  0  0  0  0
   -5.9076    5.5740   -3.0916 C   0  0  0  0  0  0
   -4.8733    4.7372   -3.0974 F   0  0  0  0  0  0
   -6.0426    6.0661   -1.8607 F   0  0  0  0  0  0
   -6.9870    4.8634   -3.4066 F   0  0  0  0  0  0
   -7.8493    9.6532   -8.2858 C   0  0  0  0  0  0
   -8.8660    7.8184  -12.6187 O   0  0  0  0  0  0
   -9.9152   10.9614  -12.1566 H   0  0  0  0  0  0
  -10.8710    9.5376  -12.1921 H   0  0  0  0  0  0
   -9.9008   10.0046  -13.6042 H   0  0  0  0  0  0
   -7.7877    9.4963  -12.3086 H   0  0  0  0  0  0
   -8.3499   11.5567  -11.1078 H   0  0  0  0  0  0
   -8.5105   11.9474   -9.4408 H   0  0  0  0  0  0
   -6.0224   11.3333  -11.0590 H   0  0  0  0  0  0
   -6.3607   12.7133  -10.0408 H   0  0  0  0  0  0
   -2.4716   11.1051   -9.2300 H   0  0  0  0  0  0
   -3.6156   11.7405  -10.3735 H   0  0  0  0  0  0
   -2.3849   13.5726   -9.4405 H   0  0  0  0  0  0
   -3.3017   12.6477   -6.6694 H   0  0  0  0  0  0
   -1.6626   12.6588   -7.2559 H   0  0  0  0  0  0
   -0.4991   14.9665   -7.6143 H   0  0  0  0  0  0
   -1.8096   15.5046   -8.6440 H   0  0  0  0  0  0
   -0.6971   17.4481   -7.6334 H   0  0  0  0  0  0
   -2.3678   17.3483   -7.1383 H   0  0  0  0  0  0
   -0.9327   17.8689   -5.1813 H   0  0  0  0  0  0
    0.0356   16.4424   -5.4664 H   0  0  0  0  0  0
   -2.9652   16.4788   -4.8243 H   0  0  0  0  0  0
   -1.7083   15.9813   -3.7221 H   0  0  0  0  0  0
   -2.8183   14.0158   -4.7749 H   0  0  0  0  0  0
   -1.1226   14.0591   -5.1952 H   0  0  0  0  0  0
   -5.0066   13.5114   -8.4302 H   0  0  0  0  0  0
   -3.4845    7.7601   -6.4718 H   0  0  0  0  0  0
   -3.7421    6.0667   -4.7061 H   0  0  0  0  0  0
   -7.3770    9.3036   -5.5916 H   0  0  0  0  0  0
   -9.0708    9.6577   -4.4402 H   0  0  0  0  0  0
   -9.7298    9.2470   -2.9157 H   0  0  0  0  0  0
   -6.8788    9.8056   -2.4860 H   0  0  0  0  0  0
   -7.3977   10.9839   -3.6296 H   0  0  0  0  0  0
   -9.8880   12.0613   -2.7475 H   0  0  0  0  0  0
  -10.3583   10.6622   -1.7884 H   0  0  0  0  0  0
  -11.2524   12.5151   -0.7180 H   0  0  0  0  0  0
  -10.0939   11.6766    0.2882 H   0  0  0  0  0  0
   -9.6028   14.2624   -1.2749 H   0  0  0  0  0  0
   -7.6677   12.7340    0.5420 H   0  0  0  0  0  0
   -7.3182   14.1934   -0.3582 H   0  0  0  0  0  0
   -6.3930   12.1770   -1.5116 H   0  0  0  0  0  0
   -7.5777   13.0137   -2.4990 H   0  0  0  0  0  0
   -8.4831   10.2530   -7.6320 H   0  0  0  0  0  0
   -8.0064    8.6174   -7.9790 H   0  0  0  0  0  0
   -8.7406    7.9031  -13.5529 H   0  0  0  0  0  0
   -3.3432   15.0107   -6.8653 H   0  0  0  0  0  0
   -8.1288   10.6608   -0.8659 H   0  0  0  0  0  0
  1  2  1  0  0  0
  1 45  1  0  0  0
  1 46  1  0  0  0
  1 47  1  0  0  0
  2  3  1  0  0  0
  2 44  1  0  0  0
  2 48  1  0  0  0
  3  4  2  0  0  0
  3  5  1  0  0  0
  5 43  1  0  0  0
  5  6  1  0  0  0
  6  7  1  0  0  0
  6 49  1  0  0  0
  6 50  1  0  0  0
  7  8  1  0  0  0
  7 51  1  0  0  0
  7 52  1  0  0  0
  8 12  1  0  0  0
  8  9  2  0  0  0
  9 10  1  0  0  0
  9 43  1  0  0  0
 10 11  2  0  0  0
 10 23  1  0  0  0
 11 12  1  0  0  0
 12 13  1  0  0  0
 13 14  1  0  0  0
 13 53  1  0  0  0
 13 54  1  0  0  0
 14 15  1  0  0  0
 14 22  1  0  0  0
 14 55  1  0  0  0
 15 16  1  0  0  0
 15 56  1  0  0  0
 15 57  1  0  0  0
 16 21  1  0  0  0
 16 17  1  0  0  0
 16 88  1  0  0  0
 17 18  1  0  0  0
 17 58  1  0  0  0
 17 59  1  0  0  0
 18 19  1  0  0  0
 18 60  1  0  0  0
 18 61  1  0  0  0
 19 20  1  0  0  0
 19 62  1  0  0  0
 19 63  1  0  0  0
 20 21  1  0  0  0
 20 64  1  0  0  0
 20 65  1  0  0  0
 21 66  1  0  0  0
 21 67  1  0  0  0
 22 68  1  0  0  0
 23 28  1  0  0  0
 23 24  2  0  0  0
 24 25  1  0  0  0
 24 69  1  0  0  0
 25 26  2  0  0  0
 25 70  1  0  0  0
 26 27  1  0  0  0
 26 39  1  0  0  0
 27 28  2  0  0  0
 27 29  1  0  0  0
 28 71  1  0  0  0
 29 30  1  0  0  0
 30 31  1  0  0  0
 30 72  1  0  0  0
 30 73  1  0  0  0
 31 32  1  0  0  0
 31 74  1  0  0  0
 31 75  1  0  0  0
 32 37  1  0  0  0
 32 33  1  0  0  0
 32 89  1  0  0  0
 33 34  1  0  0  0
 33 76  1  0  0  0
 33 77  1  0  0  0
 34 35  1  0  0  0
 34 78  1  0  0  0
 34 79  1  0  0  0
 35 36  1  0  0  0
 35 38  1  0  0  0
 35 80  1  0  0  0
 36 37  1  0  0  0
 36 81  1  0  0  0
 36 82  1  0  0  0
 37 83  1  0  0  0
 37 84  1  0  0  0
 39 40  1  0  0  0
 39 41  1  0  0  0
 39 42  1  0  0  0
 43 85  1  0  0  0
 43 86  1  0  0  0
 44 87  1  0  0  0
M  CHG  2  16   1  32   1
M  END
> <i_epik_Tot_Q>
2

> <i_epik_Tot_abs_Q>
2

> <i_f3d_flags>
0

> <i_i_glide_confnum>
2200

> <i_i_glide_lignum>
19

> <i_i_glide_posenum>
344

> <i_i_glide_rotatable_bonds>
14

> <i_lp_mmshare_version>
63125

> <i_m_Source_File_Index>
17

> <i_m_source_file_index>
17

> <b_lp_Chiralities_Consistent>
1

> <b_m_subgroup_collapsed>
0

> <r_canvas_Affinity>
0.25

> <r_epik_Charging_Adjusted_Penalty>
0.135119144620326

> <r_epik_Ionization_Penalty>
  0.0710

> <r_epik_Ionization_Penalty_Charging>
  0.0709

> <r_epik_Ionization_Penalty_Neutral>
  0.0001

> <r_epik_State_Penalty>
  0.0642

> <r_i_docking_score>
-7.92022209315182

> <r_i_glide_ecoul>
-6.25376605987549

> <r_i_glide_eff_state_penalty>
0.0642

> <r_i_glide_einternal>
22.3103160858154

> <r_i_glide_emodel>
-67.9176341127436

> <r_i_glide_energy>
-52.0466470718384

> <r_i_glide_erotb>
0.466861148256813

> <r_i_glide_esite>
0

> <r_i_glide_evdw>
-45.7928810119629

> <r_i_glide_gscore>
-7.98442209315182

> <r_i_glide_hbond>
-0.0229894179308247

> <r_i_glide_ligand_efficiency>
-0.180005047571632

> <r_i_glide_ligand_efficiency_ln>
-1.65549919614393

> <r_i_glide_ligand_efficiency_sa>
-0.635480519243208

> <r_i_glide_lipo>
-3.68532046437921

> <r_i_glide_metal>
0

> <r_i_glide_rewards>
-1.51526439951913

> <r_i_glide_rmsd>
0.038780167658747

> <r_lp_Energy>
63.775969

> <r_lp_tautomer_probability>
1

> <s_epik_cmdline>
J2VwaWtfcHl0aG9uJywgJy1waHQnLCAnMC4wJywgJy1waCcsICc3LjAnLCAnLXRuJywgJzgnLCAnLW1hJywgJzUwMCcsICctaW1hZScsICc8aW5maWxlLm1hZT4nLCAnLW9tYWUnLCAnPG91dGZpbGUubWFlPic=

> <s_epik_input>
W0NIMl0xW0NIMl1bQ0gyXVtDSDJdW0NIMl1OMVtDSDJdW0NASF0oW09IXSlbQ0gyXW4ybmMoYyhjMjMpW0NIMl1OKFtDSDJdW0NIMl0zKUMoPU8pW0NASF0oW0NIM10pW09IXSktYzRbY0hdW2NIXWMoQyhGKShGKUYpYyhbY0hdNClTW0NIMl1bQ0gyXU41W0NIMl1bQ0gyXVtDSF0oRilbQ0gyXVtDSDJdNQ==

> <s_glide_core_atoms_lig>
28 27 26 39 40 41 42 25 24 23 10 11 12 8 9 7 6 5 43 13 14 22 15 16 21 20 19 18 17

> <s_glide_core_atoms_ref>
9 8 13 14 34 35 36 12 11 10 16 39 38 18 17 19 20 40 21 23 24 44 25 41 26 27 28 29 30

> <s_glide_core_constrain_type>
snapped_core_restrain

> <s_glide_core_smarts>
c1cc(C(F)(F)F)ccc1-c2nn(c(c23)CCNC3)CC(O)C[N]4CCCCC4

> <s_i_glide_gridfile>
glide-grid_1_zrqq

> <s_lp_Force_Field>
S-OPLS

> <s_lp_Variant>
CatS_144-1

> <s_m_Source_File>
glide-dock_SP_1_zrqq_gc4FEset_pv.maegz

> <s_m_Source_Path>
/gpfs/projects/drug_discovery/mergetbj/GRAILS/CatS/glide-dock_SP_1_zrqq_gc4FEset

> <s_m_entry_id>
793

> <s_m_entry_name>
CatS_FEset_compounds_D3R_GC4_answers.17

> <s_m_job_name>
glide-dock_SP_1_zrqq_gc4FEset

> <s_m_source_file>
ligprep_2.maegz

> <s_m_subgroup_title>
glide-dock_SP_1_zrqq_gc4FEset_pv

> <s_m_subgroupid>
glide-dock_SP_1_zrqq_gc4FEset_pv

$$$$
CatS_30
                    3D
 Schrodinger Suite 2023-3.
 92 96  0  0  1  0            999 V2000
   -0.2932   19.9668   -3.4275 C   0  0  0  0  0  0
   -0.2755   18.4937   -3.8308 C   0  0  0  0  0  0
    0.2702   17.6588   -3.1101 O   0  0  0  0  0  0
   -0.8757   18.1822   -4.9903 N   0  0  0  0  0  0
   -0.9671   16.8323   -5.5380 C   0  0  2  0  0  0
   -1.3931   16.8565   -7.0170 C   0  0  0  0  0  0
   -1.4982   15.4294   -7.6012 C   0  0  0  0  0  0
   -2.4530   14.5881   -6.7939 N   0  3  2  0  0  0
   -2.0852   14.5600   -5.3425 C   0  0  0  0  0  0
   -1.9989   15.9851   -4.7667 C   0  0  0  0  0  0
   -2.6171   13.1978   -7.3196 C   0  0  0  0  0  0
   -3.1526   13.1354   -8.7719 C   0  0  0  0  0  0
   -3.3828   11.7062   -9.3016 C   0  0  0  0  0  0
   -4.4657   10.9986   -8.6352 N   0  0  0  0  0  0
   -5.8028   10.9286   -8.9771 C   0  0  0  0  0  0
   -6.3879   10.0360   -8.1407 C   0  0  0  0  0  0
   -5.3430    9.6161   -7.2638 C   0  0  0  0  0  0
   -4.1980   10.2137   -7.5683 N   0  0  0  0  0  0
   -5.4321    8.6614   -6.1590 C   0  0  0  0  0  0
   -4.3980    7.7446   -5.8874 C   0  0  0  0  0  0
   -4.5538    6.7834   -4.8764 C   0  0  0  0  0  0
   -5.7349    6.7262   -4.1063 C   0  0  0  0  0  0
   -6.7464    7.6924   -4.3329 C   0  0  0  0  0  0
   -6.5952    8.6255   -5.3728 C   0  0  0  0  0  0
   -8.2306    7.7269   -3.3635 S   0  0  0  0  0  0
   -8.7444    9.4661   -3.1948 C   0  0  0  0  0  0
   -8.6503    9.9567   -1.7452 C   0  0  0  0  0  0
   -8.9090   11.4171   -1.6637 N   0  3  0  0  0  0
   -7.6788   12.2226   -1.4372 C   0  0  0  0  0  0
   -7.9935   13.7289   -1.5454 C   0  0  0  0  0  0
   -9.1308   14.1444   -0.5997 C   0  0  0  0  0  0
  -10.3592   13.2485   -0.8171 C   0  0  0  0  0  0
   -9.9842   11.7624   -0.6999 C   0  0  0  0  0  0
   -5.9229    5.5959   -3.0966 C   0  0  0  0  0  0
   -4.9077    4.7362   -3.1206 F   0  0  0  0  0  0
   -6.0368    6.0739   -1.8594 F   0  0  0  0  0  0
   -7.0187    4.9082   -3.4039 F   0  0  0  0  0  0
   -7.8290    9.6321   -8.2825 C   0  0  0  0  0  0
   -8.2505    9.8863   -9.6802 N   0  0  2  0  0  0
   -8.0067   11.2746  -10.1530 C   0  0  0  0  0  0
   -6.4892   11.6182  -10.1342 C   0  0  0  0  0  0
   -9.5404    8.9409  -10.3428 S   0  0  0  0  0  0
   -9.3291    7.5489   -9.9102 O   0  0  0  0  0  0
   -9.6577    9.2517  -11.7742 O   0  0  0  0  0  0
  -11.0342    9.5904   -9.4940 C   0  0  0  0  0  0
   -1.3175   20.3203   -3.3330 H   0  0  0  0  0  0
    0.2218   20.5737   -4.1698 H   0  0  0  0  0  0
    0.2035   20.1024   -2.4692 H   0  0  0  0  0  0
   -1.2859   18.9322   -5.5287 H   0  0  0  0  0  0
    0.0190   16.3656   -5.4614 H   0  0  0  0  0  0
   -2.3547   17.3650   -7.1225 H   0  0  0  0  0  0
   -0.6729   17.4332   -7.6059 H   0  0  0  0  0  0
   -0.5061   14.9554   -7.6207 H   0  0  0  0  0  0
   -1.8420   15.5135   -8.6351 H   0  0  0  0  0  0
   -1.1240   14.0433   -5.2106 H   0  0  0  0  0  0
   -2.8354   13.9876   -4.7877 H   0  0  0  0  0  0
   -1.7272   15.9265   -3.7110 H   0  0  0  0  0  0
   -2.9807   16.4595   -4.8064 H   0  0  0  0  0  0
   -1.6679   12.6499   -7.2544 H   0  0  0  0  0  0
   -3.3217   12.6666   -6.6724 H   0  0  0  0  0  0
   -4.0827   13.7010   -8.8541 H   0  0  0  0  0  0
   -2.4425   13.6013   -9.4525 H   0  0  0  0  0  0
   -3.6131   11.7375  -10.3650 H   0  0  0  0  0  0
   -2.4720   11.1109   -9.2076 H   0  0  0  0  0  0
   -3.4921    7.7647   -6.4762 H   0  0  0  0  0  0
   -3.7590    6.0716   -4.7148 H   0  0  0  0  0  0
   -7.3943    9.3136   -5.5930 H   0  0  0  0  0  0
   -8.1274   10.1051   -3.8229 H   0  0  0  0  0  0
   -9.7649    9.5604   -3.5614 H   0  0  0  0  0  0
   -9.3703    9.3992   -1.1407 H   0  0  0  0  0  0
   -7.6710    9.7191   -1.3280 H   0  0  0  0  0  0
   -7.2703   12.0006   -0.4513 H   0  0  0  0  0  0
   -6.9080   11.9486   -2.1612 H   0  0  0  0  0  0
   -7.0992   14.3070   -1.3176 H   0  0  0  0  0  0
   -8.2584   13.9750   -2.5732 H   0  0  0  0  0  0
   -9.3955   15.1888   -0.7714 H   0  0  0  0  0  0
   -8.7962   14.0726    0.4378 H   0  0  0  0  0  0
  -10.7899   13.4444   -1.7994 H   0  0  0  0  0  0
  -11.1311   13.4931   -0.0865 H   0  0  0  0  0  0
  -10.8687   11.1496   -0.8906 H   0  0  0  0  0  0
   -9.6523   11.5363    0.3141 H   0  0  0  0  0  0
   -7.9724    8.5804   -8.0379 H   0  0  0  0  0  0
   -8.4704   10.2043   -7.6076 H   0  0  0  0  0  0
   -8.5518   11.9611   -9.4993 H   0  0  0  0  0  0
   -8.4074   11.4155  -11.1586 H   0  0  0  0  0  0
   -6.3457   12.6923  -10.0695 H   0  0  0  0  0  0
   -6.0244   11.2822  -11.0611 H   0  0  0  0  0  0
  -11.9226    9.1088   -9.9088 H   0  0  0  0  0  0
  -10.9734    9.3755   -8.4254 H   0  0  0  0  0  0
  -11.1032   10.6691   -9.6542 H   0  0  0  0  0  0
   -9.2599   11.6871   -2.5714 H   0  0  0  0  0  0
   -3.3616   15.0240   -6.8605 H   0  0  0  0  0  0
  1  2  1  0  0  0
  1 46  1  0  0  0
  1 47  1  0  0  0
  1 48  1  0  0  0
  2  3  2  0  0  0
  2  4  1  0  0  0
  4  5  1  0  0  0
  4 49  1  0  0  0
  5 10  1  0  0  0
  5  6  1  0  0  0
  5 50  1  0  0  0
  6  7  1  0  0  0
  6 51  1  0  0  0
  6 52  1  0  0  0
  7  8  1  0  0  0
  7 53  1  0  0  0
  7 54  1  0  0  0
  8  9  1  0  0  0
  8 11  1  0  0  0
  8 92  1  0  0  0
  9 10  1  0  0  0
  9 55  1  0  0  0
  9 56  1  0  0  0
 10 57  1  0  0  0
 10 58  1  0  0  0
 11 12  1  0  0  0
 11 59  1  0  0  0
 11 60  1  0  0  0
 12 13  1  0  0  0
 12 61  1  0  0  0
 12 62  1  0  0  0
 13 14  1  0  0  0
 13 63  1  0  0  0
 13 64  1  0  0  0
 14 18  1  0  0  0
 14 15  1  0  0  0
 15 41  1  0  0  0
 15 16  2  0  0  0
 16 17  1  0  0  0
 16 38  1  0  0  0
 17 18  2  0  0  0
 17 19  1  0  0  0
 19 24  1  0  0  0
 19 20  2  0  0  0
 20 21  1  0  0  0
 20 65  1  0  0  0
 21 22  2  0  0  0
 21 66  1  0  0  0
 22 23  1  0  0  0
 22 34  1  0  0  0
 23 24  2  0  0  0
 23 25  1  0  0  0
 24 67  1  0  0  0
 25 26  1  0  0  0
 26 27  1  0  0  0
 26 68  1  0  0  0
 26 69  1  0  0  0
 27 28  1  0  0  0
 27 70  1  0  0  0
 27 71  1  0  0  0
 28 33  1  0  0  0
 28 29  1  0  0  0
 28 91  1  0  0  0
 29 30  1  0  0  0
 29 72  1  0  0  0
 29 73  1  0  0  0
 30 31  1  0  0  0
 30 74  1  0  0  0
 30 75  1  0  0  0
 31 32  1  0  0  0
 31 76  1  0  0  0
 31 77  1  0  0  0
 32 33  1  0  0  0
 32 78  1  0  0  0
 32 79  1  0  0  0
 33 80  1  0  0  0
 33 81  1  0  0  0
 34 35  1  0  0  0
 34 36  1  0  0  0
 34 37  1  0  0  0
 38 39  1  0  0  0
 38 82  1  0  0  0
 38 83  1  0  0  0
 39 40  1  0  0  0
 39 42  1  0  0  0
 40 41  1  0  0  0
 40 84  1  0  0  0
 40 85  1  0  0  0
 41 86  1  0  0  0
 41 87  1  0  0  0
 42 43  2  0  0  0
 42 44  2  0  0  0
 42 45  1  0  0  0
 45 88  1  0  0  0
 45 89  1  0  0  0
 45 90  1  0  0  0
M  CHG  2   8   1  28   1
M  END
> <i_epik_Tot_Q>
2

> <i_epik_Tot_abs_Q>
2

> <i_f3d_flags>
0

> <i_i_glide_confnum>
2509

> <i_i_glide_lignum>
5

> <i_i_glide_posenum>
161

> <i_i_glide_rotatable_bonds>
13

> <i_lp_mmshare_version>
63125

> <i_m_Source_File_Index>
4

> <i_m_source_file_index>
4

> <b_lp_Chiralities_Consistent>
1

> <b_m_subgroup_collapsed>
0

> <r_canvas_Affinity>
0.15

> <r_epik_Charging_Adjusted_Penalty>
0.0244317974612768

> <r_epik_Ionization_Penalty>
  0.0245

> <r_epik_Ionization_Penalty_Charging>
  0.0244

> <r_epik_Ionization_Penalty_Neutral>
  0.0000

> <r_epik_State_Penalty>
  0.0000

> <r_i_docking_score>
-7.86237727674258

> <r_i_glide_ecoul>
-6.76676177978516

> <r_i_glide_eff_state_penalty>
0

> <r_i_glide_einternal>
4.2769775390625

> <r_i_glide_emodel>
-78.0048929589602

> <r_i_glide_energy>
-53.9398422241211

> <r_i_glide_erotb>
0.355343513418465

> <r_i_glide_esite>
-0.058310400781029

> <r_i_glide_evdw>
-47.1730804443359

> <r_i_glide_gscore>
-7.86237727674258

> <r_i_glide_hbond>
0

> <r_i_glide_ligand_efficiency>
-0.174719495038724

> <r_i_glide_ligand_efficiency_ln>
-1.63572484930563

> <r_i_glide_ligand_efficiency_sa>
-0.621458601278561

> <r_i_glide_lipo>
-3.52819431765517

> <r_i_glide_metal>
0

> <r_i_glide_rewards>
-1.25754778254027

> <r_i_glide_rmsd>
0.0361331021275548

> <r_lp_Energy>
59.548337

> <r_lp_tautomer_probability>
1

> <s_epik_cmdline>
J2VwaWtfcHl0aG9uJywgJy1waHQnLCAnMC4wJywgJy1waCcsICc3LjAnLCAnLXRuJywgJzgnLCAnLW1hJywgJzUwMCcsICctaW1hZScsICc8aW5maWxlLm1hZT4nLCAnLW9tYWUnLCAnPG91dGZpbGUubWFlPic=

> <s_epik_input>
W0NIM11DKD1PKVtOSF1bQ0hdMVtDSDJdW0NIMl1OKFtDSDJdW0NIMl0xKVtDSDJdW0NIMl1bQ0gyXW4ybmMoYyhjMjMpW0NIMl1OKFtDSDJdW0NIMl0zKVMoPU8pKD1PKVtDSDNdKS1jNFtjSF1bY0hdYyhDKEYpKEYpRiljKFtjSF00KVNbQ0gyXVtDSDJdTjVbQ0gyXVtDSDJdW0NIMl1bQ0gyXVtDSDJdNQ==

> <s_glide_core_atoms_lig>
24 23 22 34 35 36 37 21 20 19 17 18 14 15 16 41 40 39 38 42 43 44 45 13 12 11 8 9 10 5 6 7

> <s_glide_core_atoms_ref>
9 8 13 14 34 35 36 12 11 10 16 39 38 18 17 19 20 40 21 45 42 43 22 23 24 25 41 26 27 28 29 30

> <s_glide_core_constrain_type>
snapped_core_restrain

> <s_glide_core_smarts>
c1cc(C(F)(F)F)ccc1-c2nn(c(c23)CCN(C3)S(=O)(=O)C)CCC[N]4CCCCC4

> <s_i_glide_gridfile>
glide-grid_1_zrqq

> <s_lp_Force_Field>
S-OPLS

> <s_lp_Variant>
CatS_30-1

> <s_m_Source_File>
glide-dock_SP_1_zrqq_gc4FEset_pv.maegz

> <s_m_Source_Path>
/gpfs/projects/drug_discovery/mergetbj/GRAILS/CatS/glide-dock_SP_1_zrqq_gc4FEset

> <s_m_entry_id>
794

> <s_m_entry_name>
CatS_FEset_compounds_D3R_GC4_answers.4

> <s_m_job_name>
glide-dock_SP_1_zrqq_gc4FEset

> <s_m_source_file>
ligprep_2.maegz

> <s_m_subgroup_title>
glide-dock_SP_1_zrqq_gc4FEset_pv

> <s_m_subgroupid>
glide-dock_SP_1_zrqq_gc4FEset_pv

$$$$
CatS_174
                    3D
 Schrodinger Suite 2023-3.
 89 93  0  0  1  0            999 V2000
  -11.0499    9.5946   -9.4727 C   0  0  0  0  0  0
   -9.5520    8.9347  -10.3359 S   0  0  0  0  0  0
   -9.3448    7.5363   -9.8802 O   0  0  0  0  0  0
   -9.6706    9.2270  -11.7592 O   0  0  0  0  0  0
   -8.2529    9.8748   -9.6690 N   0  0  1  0  0  0
   -8.0179   11.2647  -10.1527 C   0  0  0  0  0  0
   -6.5056   11.6151  -10.1327 C   0  0  0  0  0  0
   -5.8122   10.9375   -8.9742 C   0  0  0  0  0  0
   -6.3988   10.0362   -8.1246 C   0  0  0  0  0  0
   -5.3628    9.6321   -7.2438 C   0  0  0  0  0  0
   -4.2117   10.2175   -7.5638 N   0  0  0  0  0  0
   -4.4773   10.9983   -8.6334 N   0  0  0  0  0  0
   -3.3996   11.7064   -9.3016 C   0  0  0  0  0  0
   -3.1521   13.1350   -8.7845 C   0  0  2  0  0  0
   -2.6558   13.1861   -7.3210 C   0  0  0  0  0  0
   -2.4583   14.5803   -6.7850 N   0  3  1  0  0  0
   -2.0948   14.5545   -5.3196 C   0  0  0  0  0  0
   -1.9577   15.9819   -4.7566 C   0  0  0  0  0  0
   -0.9268   16.8270   -5.5377 C   0  0  2  0  0  0
   -1.3660   16.8396   -7.0191 C   0  0  0  0  0  0
   -1.5028   15.4233   -7.6071 C   0  0  0  0  0  0
    0.5202   16.3077   -5.3590 C   0  0  0  0  0  0
    0.8399   15.1722   -5.7019 O   0  0  0  0  0  0
    1.4131   17.1390   -4.8191 N   0  0  0  0  0  0
   -4.3242   13.9175   -8.9344 O   0  0  0  0  0  0
   -5.4559    8.6750   -6.1317 C   0  0  0  0  0  0
   -4.4185    7.7510   -5.8803 C   0  0  0  0  0  0
   -4.5704    6.7791   -4.8789 C   0  0  0  0  0  0
   -5.7450    6.7106   -4.1066 C   0  0  0  0  0  0
   -6.7629    7.6759   -4.3159 C   0  0  0  0  0  0
   -6.6056    8.6402   -5.3321 C   0  0  0  0  0  0
   -8.2422    7.6908   -3.3520 S   0  0  0  0  0  0
   -8.0282    9.0010   -2.1148 C   0  0  0  0  0  0
   -9.2711    9.9084   -1.9973 C   0  0  0  0  0  0
   -9.0353   11.0527   -1.1095 N   0  0  0  0  0  0
  -10.3163   11.6501   -0.7269 C   0  0  0  0  0  0
  -10.0959   12.7772    0.2833 C   0  0  0  0  0  0
   -9.1622   13.8616   -0.2866 C   0  0  0  0  0  0
   -7.8685   13.1986   -0.7993 C   0  0  0  0  0  0
   -8.1905   12.0566   -1.7669 C   0  0  0  0  0  0
   -8.8706   14.7720    0.6657 F   0  0  0  0  0  0
   -9.7782   14.5021   -1.3046 F   0  0  0  0  0  0
   -5.9242    5.5736   -3.1015 C   0  0  0  0  0  0
   -4.8855    4.7361   -3.1080 F   0  0  0  0  0  0
   -6.0700    6.0462   -1.8640 F   0  0  0  0  0  0
   -6.9988    4.8579   -3.4271 F   0  0  0  0  0  0
   -7.8420    9.6352   -8.2697 C   0  0  0  0  0  0
  -10.8582    9.6477   -8.4044 H   0  0  0  0  0  0
  -11.2699   10.5882   -9.8600 H   0  0  0  0  0  0
  -11.8949    8.9346   -9.6547 H   0  0  0  0  0  0
   -8.5687   11.9461   -9.5053 H   0  0  0  0  0  0
   -8.4099   11.3933  -11.1583 H   0  0  0  0  0  0
   -6.3779   12.6946  -10.0761 H   0  0  0  0  0  0
   -6.0390   11.2937  -11.0638 H   0  0  0  0  0  0
   -3.6325   11.7443  -10.3692 H   0  0  0  0  0  0
   -2.4874   11.1161   -9.2204 H   0  0  0  0  0  0
   -2.4093   13.5845   -9.4410 H   0  0  0  0  0  0
   -1.7144   12.6361   -7.2277 H   0  0  0  0  0  0
   -3.3751   12.6702   -6.6797 H   0  0  0  0  0  0
   -2.8682   14.0158   -4.7659 H   0  0  0  0  0  0
   -1.1707   13.9888   -5.1824 H   0  0  0  0  0  0
   -1.6840   15.9404   -3.7066 H   0  0  0  0  0  0
   -2.9259   16.4813   -4.7989 H   0  0  0  0  0  0
   -0.9339   17.8497   -5.1464 H   0  0  0  0  0  0
   -2.3232   17.3544   -7.1032 H   0  0  0  0  0  0
   -0.6613   17.4123   -7.6144 H   0  0  0  0  0  0
   -1.8682   15.5148   -8.6312 H   0  0  0  0  0  0
   -0.5347   14.9237   -7.6680 H   0  0  0  0  0  0
    1.1490   18.0714   -4.5382 H   0  0  0  0  0  0
    2.3646   16.8167   -4.7026 H   0  0  0  0  0  0
   -4.1068   14.8339   -8.8578 H   0  0  0  0  0  0
   -3.5200    7.7717   -6.4713 H   0  0  0  0  0  0
   -3.7678    6.0736   -4.7222 H   0  0  0  0  0  0
   -7.3950    9.3554   -5.4900 H   0  0  0  0  0  0
   -7.7755    8.5517   -1.1564 H   0  0  0  0  0  0
   -7.1632    9.5819   -2.4256 H   0  0  0  0  0  0
   -9.5822   10.2628   -2.9821 H   0  0  0  0  0  0
  -10.0951    9.3045   -1.6136 H   0  0  0  0  0  0
  -10.8371   12.0269   -1.6086 H   0  0  0  0  0  0
  -10.9612   10.8949   -0.2766 H   0  0  0  0  0  0
  -11.0485   13.2312    0.5689 H   0  0  0  0  0  0
   -9.6656   12.3774    1.2005 H   0  0  0  0  0  0
   -7.2930   12.8255    0.0408 H   0  0  0  0  0  0
   -7.2475   13.9498   -1.2914 H   0  0  0  0  0  0
   -7.2493   11.6156   -2.0911 H   0  0  0  0  0  0
   -8.6856   12.4391   -2.6590 H   0  0  0  0  0  0
   -7.9919    8.5854   -8.0201 H   0  0  0  0  0  0
   -8.4941   10.2074   -7.6102 H   0  0  0  0  0  0
   -3.3680   15.0532   -6.8228 H   0  0  0  0  0  0
  1  2  1  0  0  0
  1 48  1  0  0  0
  1 49  1  0  0  0
  1 50  1  0  0  0
  2  3  2  0  0  0
  2  4  2  0  0  0
  2  5  1  0  0  0
  5 47  1  0  0  0
  5  6  1  0  0  0
  6  7  1  0  0  0
  6 51  1  0  0  0
  6 52  1  0  0  0
  7  8  1  0  0  0
  7 53  1  0  0  0
  7 54  1  0  0  0
  8 12  1  0  0  0
  8  9  2  0  0  0
  9 10  1  0  0  0
  9 47  1  0  0  0
 10 11  2  0  0  0
 10 26  1  0  0  0
 11 12  1  0  0  0
 12 13  1  0  0  0
 13 14  1  0  0  0
 13 55  1  0  0  0
 13 56  1  0  0  0
 14 15  1  0  0  0
 14 25  1  0  0  0
 14 57  1  0  0  0
 15 16  1  0  0  0
 15 58  1  0  0  0
 15 59  1  0  0  0
 16 21  1  0  0  0
 16 17  1  0  0  0
 16 89  1  0  0  0
 17 18  1  0  0  0
 17 60  1  0  0  0
 17 61  1  0  0  0
 18 19  1  0  0  0
 18 62  1  0  0  0
 18 63  1  0  0  0
 19 20  1  0  0  0
 19 22  1  0  0  0
 19 64  1  0  0  0
 20 21  1  0  0  0
 20 65  1  0  0  0
 20 66  1  0  0  0
 21 67  1  0  0  0
 21 68  1  0  0  0
 22 23  2  0  0  0
 22 24  1  0  0  0
 24 69  1  0  0  0
 24 70  1  0  0  0
 25 71  1  0  0  0
 26 31  1  0  0  0
 26 27  2  0  0  0
 27 28  1  0  0  0
 27 72  1  0  0  0
 28 29  2  0  0  0
 28 73  1  0  0  0
 29 30  1  0  0  0
 29 43  1  0  0  0
 30 31  2  0  0  0
 30 32  1  0  0  0
 31 74  1  0  0  0
 32 33  1  0  0  0
 33 34  1  0  0  0
 33 75  1  0  0  0
 33 76  1  0  0  0
 34 35  1  0  0  0
 34 77  1  0  0  0
 34 78  1  0  0  0
 35 40  1  0  0  0
 35 36  1  0  0  0
 36 37  1  0  0  0
 36 79  1  0  0  0
 36 80  1  0  0  0
 37 38  1  0  0  0
 37 81  1  0  0  0
 37 82  1  0  0  0
 38 39  1  0  0  0
 38 41  1  0  0  0
 38 42  1  0  0  0
 39 40  1  0  0  0
 39 83  1  0  0  0
 39 84  1  0  0  0
 40 85  1  0  0  0
 40 86  1  0  0  0
 43 44  1  0  0  0
 43 45  1  0  0  0
 43 46  1  0  0  0
 47 87  1  0  0  0
 47 88  1  0  0  0
M  CHG  1  16   1
M  END
> <i_epik_Tot_Q>
1

> <i_epik_Tot_abs_Q>
1

> <i_f3d_flags>
0

> <i_i_glide_confnum>
2742

> <i_i_glide_lignum>
28

> <i_i_glide_posenum>
361

> <i_i_glide_rotatable_bonds>
13

> <i_lp_mmshare_version>
63125

> <i_m_Source_File_Index>
26

> <i_m_source_file_index>
26

> <b_lp_Chiralities_Consistent>
1

> <b_m_subgroup_collapsed>
0

> <r_canvas_Affinity>
0.085

> <r_epik_Charging_Adjusted_Penalty>
0.353011217365347

> <r_epik_Ionization_Penalty>
  0.3531

> <r_epik_Ionization_Penalty_Charging>
  0.0278

> <r_epik_Ionization_Penalty_Neutral>
  0.3253

> <r_epik_State_Penalty>
  0.3252

> <r_i_docking_score>
-7.84775407443032

> <r_i_glide_ecoul>
-7.14576482772827

> <r_i_glide_eff_state_penalty>
0.3252

> <r_i_glide_einternal>
4.03891229629517

> <r_i_glide_emodel>
-84.0439533344727

> <r_i_glide_energy>
-56.4782385826111

> <r_i_glide_erotb>
0.332608031469487

> <r_i_glide_esite>
-0.0610363817877158

> <r_i_glide_evdw>
-49.3324737548828

> <r_i_glide_gscore>
-8.17295407443032

> <r_i_glide_hbond>
0

> <r_i_glide_ligand_efficiency>
-0.166973490945326

> <r_i_glide_ligand_efficiency_ln>
-1.61804438109541

> <r_i_glide_ligand_efficiency_sa>
-0.602578288041956

> <r_i_glide_lipo>
-3.54123499787591

> <r_i_glide_metal>
0

> <r_i_glide_rewards>
-1.3648023143328

> <r_i_glide_rmsd>
0.0374355449425383

> <r_lp_Energy>
45.361948

> <r_lp_tautomer_probability>
1

> <s_epik_cmdline>
J2VwaWtfcHl0aG9uJywgJy1waHQnLCAnMC4wJywgJy1waCcsICc3LjAnLCAnLXRuJywgJzgnLCAnLW1hJywgJzUwMCcsICctaW1hZScsICc8aW5maWxlLm1hZT4nLCAnLW9tYWUnLCAnPG91dGZpbGUubWFlPic=

> <s_epik_input>
W0NIMl0xW0NIMl1bQ0hdKEMoPU8pW05IMl0pW0NIMl1bQ0gyXU4xW0NIMl1bQ0BIXShbT0hdKVtDSDJdbjJuYyhjKGMyMylbQ0gyXU4oUyg9TykoPU8pW0NIM10pW0NIMl1bQ0gyXTMpLWM0W2NIXVtjSF1jKEMoRikoRilGKWMoW2NIXTQpU1tDSDJdW0NIMl1OKFtDSDJdW0NIMl01KVtDSDJdW0NIMl1DNShGKUY=

> <s_glide_core_atoms_lig>
31 30 29 43 44 45 46 28 27 26 10 11 12 8 9 7 6 5 47 2 3 4 1 13 14 25 15 16 17 18 21 20 19 22

> <s_glide_core_atoms_ref>
9 8 13 14 34 35 36 12 11 10 16 39 38 18 17 19 20 40 21 45 42 43 22 23 24 44 25 41 26 27 30 29 28 31

> <s_glide_core_constrain_type>
snapped_core_restrain

> <s_glide_core_smarts>
c1cc(C(F)(F)F)ccc1-c2nn(c(c23)CCN(C3)S(=O)(=O)C)CC(O)C[N](CC4)CCC4C

> <s_i_glide_gridfile>
glide-grid_1_zrqq

> <s_lp_Force_Field>
S-OPLS

> <s_lp_Variant>
CatS_174-1

> <s_m_Source_File>
glide-dock_SP_1_zrqq_gc4FEset_pv.maegz

> <s_m_Source_Path>
/gpfs/projects/drug_discovery/mergetbj/GRAILS/CatS/glide-dock_SP_1_zrqq_gc4FEset

> <s_m_entry_id>
795

> <s_m_entry_name>
CatS_FEset_compounds_D3R_GC4_answers.26

> <s_m_job_name>
glide-dock_SP_1_zrqq_gc4FEset

> <s_m_source_file>
ligprep_2.maegz

> <s_m_subgroup_title>
glide-dock_SP_1_zrqq_gc4FEset_pv

> <s_m_subgroupid>
glide-dock_SP_1_zrqq_gc4FEset_pv

$$$$
CatS_84
                    3D
 Schrodinger Suite 2023-3.
 87 91  0  0  1  0            999 V2000
  -11.0407    9.5741   -9.4805 C   0  0  0  0  0  0
   -9.5445    8.9300  -10.3428 S   0  0  0  0  0  0
   -9.3284    7.5364   -9.9155 O   0  0  0  0  0  0
   -9.6698    9.2421  -11.7777 O   0  0  0  0  0  0
   -8.2523    9.8789   -9.6817 N   0  0  1  0  0  0
   -8.0123   11.2698  -10.1582 C   0  0  0  0  0  0
   -6.4983   11.6146  -10.1377 C   0  0  0  0  0  0
   -5.8142   10.9448   -8.9769 C   0  0  0  0  0  0
   -6.4007   10.0458   -8.1350 C   0  0  0  0  0  0
   -5.3620    9.6367   -7.2499 C   0  0  0  0  0  0
   -4.2104   10.2224   -7.5606 N   0  0  0  0  0  0
   -4.4793   11.0082   -8.6327 N   0  0  0  0  0  0
   -3.3964   11.7134   -9.3054 C   0  0  0  0  0  0
   -3.1410   13.1443   -8.7884 C   0  0  2  0  0  0
   -2.6190   13.1932   -7.3263 C   0  0  0  0  0  0
   -2.4285   14.5808   -6.7987 N   0  3  2  0  0  0
   -1.4773   15.4206   -7.6076 C   0  0  0  0  0  0
   -1.3748   16.8531   -7.0471 C   0  0  0  0  0  0
   -0.9829   16.8494   -5.5596 C   0  0  0  0  0  0
   -1.9775   15.9873   -4.7638 C   0  0  2  0  0  0
   -2.0750   14.5596   -5.3439 C   0  0  0  0  0  0
   -3.2509   16.6033   -4.7778 O   0  0  0  0  0  0
   -4.3169   13.9187   -8.9159 O   0  0  0  0  0  0
   -5.4543    8.6754   -6.1487 C   0  0  0  0  0  0
   -4.4233    7.7434   -5.9041 C   0  0  0  0  0  0
   -4.5719    6.7713   -4.9025 C   0  0  0  0  0  0
   -5.7368    6.7183   -4.1051 C   0  0  0  0  0  0
   -6.7444    7.6882   -4.3115 C   0  0  0  0  0  0
   -6.6055    8.6420   -5.3350 C   0  0  0  0  0  0
   -8.1912    7.7549   -3.3055 S   0  0  0  0  0  0
   -7.8740    9.1334   -2.1692 C   0  0  0  0  0  0
   -9.0731   10.0902   -2.0624 C   0  0  0  0  0  0
   -8.8178   11.2706   -1.1981 N   0  3  1  0  0  0
   -8.0479   12.3228   -1.9047 C   0  0  0  0  0  0
   -7.7151   13.5000   -0.9717 C   0  0  0  0  0  0
   -8.9862   14.0951   -0.3435 C   0  0  2  0  0  0
   -9.8016   12.9821    0.3361 C   0  0  0  0  0  0
  -10.0792   11.8182   -0.6340 C   0  0  0  0  0  0
   -9.7272   14.6932   -1.2833 F   0  0  0  0  0  0
   -5.9156    5.5898   -3.0950 C   0  0  0  0  0  0
   -4.8966    4.7351   -3.1175 F   0  0  0  0  0  0
   -6.0356    6.0666   -1.8551 F   0  0  0  0  0  0
   -7.0034    4.8889   -3.4062 F   0  0  0  0  0  0
   -7.8286    9.6226   -8.2865 C   0  0  0  0  0  0
  -10.8695    9.5790   -8.4041 H   0  0  0  0  0  0
  -11.2450   10.5933   -9.8212 H   0  0  0  0  0  0
  -11.8996    8.9372   -9.7061 H   0  0  0  0  0  0
   -8.5686   11.9602   -9.5277 H   0  0  0  0  0  0
   -8.4033   11.3859  -11.1651 H   0  0  0  0  0  0
   -6.3689   12.6957  -10.0882 H   0  0  0  0  0  0
   -6.0326   11.2813  -11.0740 H   0  0  0  0  0  0
   -3.6344   11.7483  -10.3689 H   0  0  0  0  0  0
   -2.4908   11.1134   -9.2154 H   0  0  0  0  0  0
   -2.4052   13.5849   -9.4548 H   0  0  0  0  0  0
   -1.6787   12.6389   -7.2451 H   0  0  0  0  0  0
   -3.3365   12.6765   -6.6851 H   0  0  0  0  0  0
   -1.8027   15.4878   -8.6501 H   0  0  0  0  0  0
   -0.4866   14.9505   -7.6219 H   0  0  0  0  0  0
   -2.3367   17.3620   -7.1669 H   0  0  0  0  0  0
   -0.6462   17.4242   -7.6176 H   0  0  0  0  0  0
   -0.9478   17.8785   -5.1709 H   0  0  0  0  0  0
    0.0266   16.4420   -5.4522 H   0  0  0  0  0  0
   -1.6672   15.9351   -3.7206 H   0  0  0  0  0  0
   -1.1165   14.0471   -5.2040 H   0  0  0  0  0  0
   -2.8132   13.9864   -4.7696 H   0  0  0  0  0  0
   -3.4633   16.8782   -5.6581 H   0  0  0  0  0  0
   -4.0857   14.8347   -8.9721 H   0  0  0  0  0  0
   -3.5299    7.7540   -6.5068 H   0  0  0  0  0  0
   -3.7790    6.0517   -4.7669 H   0  0  0  0  0  0
   -7.3927    9.3593   -5.4904 H   0  0  0  0  0  0
   -7.6488    8.7149   -1.1930 H   0  0  0  0  0  0
   -6.9815    9.6527   -2.5056 H   0  0  0  0  0  0
   -9.3854   10.4244   -3.0555 H   0  0  0  0  0  0
   -9.9201    9.5338   -1.6564 H   0  0  0  0  0  0
   -7.1173   11.9076   -2.2935 H   0  0  0  0  0  0
   -8.6150   12.6778   -2.7686 H   0  0  0  0  0  0
   -7.0266   13.1767   -0.1874 H   0  0  0  0  0  0
   -7.1924   14.2789   -1.5285 H   0  0  0  0  0  0
   -8.7155   14.8631    0.3844 H   0  0  0  0  0  0
  -10.7414   13.3900    0.7039 H   0  0  0  0  0  0
   -9.2697   12.6176    1.2195 H   0  0  0  0  0  0
  -10.7262   12.1561   -1.4460 H   0  0  0  0  0  0
  -10.6197   11.0304   -0.1045 H   0  0  0  0  0  0
   -7.9628    8.5648   -8.0598 H   0  0  0  0  0  0
   -8.4911   10.1637   -7.6083 H   0  0  0  0  0  0
   -3.3447   15.0264   -6.8542 H   0  0  0  0  0  0
   -8.2577   10.9582   -0.4163 H   0  0  0  0  0  0
  1  2  1  0  0  0
  1 45  1  0  0  0
  1 46  1  0  0  0
  1 47  1  0  0  0
  2  3  2  0  0  0
  2  4  2  0  0  0
  2  5  1  0  0  0
  5 44  1  0  0  0
  5  6  1  0  0  0
  6  7  1  0  0  0
  6 48  1  0  0  0
  6 49  1  0  0  0
  7  8  1  0  0  0
  7 50  1  0  0  0
  7 51  1  0  0  0
  8 12  1  0  0  0
  8  9  2  0  0  0
  9 10  1  0  0  0
  9 44  1  0  0  0
 10 11  2  0  0  0
 10 24  1  0  0  0
 11 12  1  0  0  0
 12 13  1  0  0  0
 13 14  1  0  0  0
 13 52  1  0  0  0
 13 53  1  0  0  0
 14 15  1  0  0  0
 14 23  1  0  0  0
 14 54  1  0  0  0
 15 16  1  0  0  0
 15 55  1  0  0  0
 15 56  1  0  0  0
 16 21  1  0  0  0
 16 17  1  0  0  0
 16 86  1  0  0  0
 17 18  1  0  0  0
 17 57  1  0  0  0
 17 58  1  0  0  0
 18 19  1  0  0  0
 18 59  1  0  0  0
 18 60  1  0  0  0
 19 20  1  0  0  0
 19 61  1  0  0  0
 19 62  1  0  0  0
 20 21  1  0  0  0
 20 22  1  0  0  0
 20 63  1  0  0  0
 21 64  1  0  0  0
 21 65  1  0  0  0
 22 66  1  0  0  0
 23 67  1  0  0  0
 24 29  1  0  0  0
 24 25  2  0  0  0
 25 26  1  0  0  0
 25 68  1  0  0  0
 26 27  2  0  0  0
 26 69  1  0  0  0
 27 28  1  0  0  0
 27 40  1  0  0  0
 28 29  2  0  0  0
 28 30  1  0  0  0
 29 70  1  0  0  0
 30 31  1  0  0  0
 31 32  1  0  0  0
 31 71  1  0  0  0
 31 72  1  0  0  0
 32 33  1  0  0  0
 32 73  1  0  0  0
 32 74  1  0  0  0
 33 38  1  0  0  0
 33 34  1  0  0  0
 33 87  1  0  0  0
 34 35  1  0  0  0
 34 75  1  0  0  0
 34 76  1  0  0  0
 35 36  1  0  0  0
 35 77  1  0  0  0
 35 78  1  0  0  0
 36 37  1  0  0  0
 36 39  1  0  0  0
 36 79  1  0  0  0
 37 38  1  0  0  0
 37 80  1  0  0  0
 37 81  1  0  0  0
 38 82  1  0  0  0
 38 83  1  0  0  0
 40 41  1  0  0  0
 40 42  1  0  0  0
 40 43  1  0  0  0
 44 84  1  0  0  0
 44 85  1  0  0  0
M  CHG  2  16   1  33   1
M  END
> <i_epik_Tot_Q>
2

> <i_epik_Tot_abs_Q>
2

> <i_f3d_flags>
0

> <i_i_glide_confnum>
1

> <i_i_glide_lignum>
10

> <i_i_glide_posenum>
98

> <i_i_glide_rotatable_bonds>
13

> <i_lp_mmshare_version>
63125

> <i_m_Source_File_Index>
8

> <i_m_source_file_index>
8

> <b_lp_Chiralities_Consistent>
1

> <b_m_subgroup_collapsed>
0

> <r_canvas_Affinity>
0.33

> <r_epik_Charging_Adjusted_Penalty>
0.135750179767908

> <r_epik_Ionization_Penalty>
  0.0716

> <r_epik_Ionization_Penalty_Charging>
  0.0715

> <r_epik_Ionization_Penalty_Neutral>
  0.0001

> <r_epik_State_Penalty>
  0.0642

> <r_i_docking_score>
-7.79422557242533

> <r_i_glide_ecoul>
-7.38060331344604

> <r_i_glide_eff_state_penalty>
0.0642

> <r_i_glide_einternal>
4.74050045013428

> <r_i_glide_emodel>
-78.6917788276547

> <r_i_glide_energy>
-54.2653002738953

> <r_i_glide_erotb>
0.417261226664233

> <r_i_glide_esite>
-0.06055610790139

> <r_i_glide_evdw>
-46.8846969604492

> <r_i_glide_gscore>
-7.85842557242533

> <r_i_glide_hbond>
0

> <r_i_glide_ligand_efficiency>
-0.177141490282394

> <r_i_glide_ligand_efficiency_ln>
-1.62916317471342

> <r_i_glide_ligand_efficiency_sa>
-0.625371164546786

> <r_i_glide_lipo>
-3.54388829869089

> <r_i_glide_metal>
0

> <r_i_glide_rewards>
-1.21991704745791

> <r_i_glide_rmsd>
0.0393757803834569

> <r_lp_Energy>
52.802532

> <r_lp_tautomer_probability>
1

> <s_epik_cmdline>
J2VwaWtfcHl0aG9uJywgJy1waHQnLCAnMC4wJywgJy1waCcsICc3LjAnLCAnLXRuJywgJzgnLCAnLW1hJywgJzUwMCcsICctaW1hZScsICc8aW5maWxlLm1hZT4nLCAnLW9tYWUnLCAnPG91dGZpbGUubWFlPic=

> <s_epik_input>
W0NIMl0xW0NASF0oW09IXSlbQ0gyXVtDSDJdW0NIMl1OMVtDSDJdW0NASF0oW09IXSlbQ0gyXW4ybmMoYyhjMjMpW0NIMl1OKFMoPU8pKD1PKVtDSDNdKVtDSDJdW0NIMl0zKS1jNFtjSF1bY0hdYyhDKEYpKEYpRiljKFtjSF00KVNbQ0gyXVtDSDJdTjVbQ0gyXVtDSDJdW0NIXShGKVtDSDJdW0NIMl01

> <s_glide_core_atoms_lig>
29 28 27 40 41 42 43 26 25 24 10 11 12 8 9 7 6 5 44 2 3 4 1 13 14 23 15 16 21 20 19 18 17

> <s_glide_core_atoms_ref>
9 8 13 14 34 35 36 12 11 10 16 39 38 18 17 19 20 40 21 45 42 43 22 23 24 44 25 41 26 27 28 29 30

> <s_glide_core_constrain_type>
snapped_core_restrain

> <s_glide_core_smarts>
c1cc(C(F)(F)F)ccc1-c2nn(c(c23)CCN(C3)S(=O)(=O)C)CC(O)C[N]4CCCCC4

> <s_i_glide_gridfile>
glide-grid_1_zrqq

> <s_lp_Force_Field>
S-OPLS

> <s_lp_Variant>
CatS_84-2

> <s_m_Source_File>
glide-dock_SP_1_zrqq_gc4FEset_pv.maegz

> <s_m_Source_Path>
/gpfs/projects/drug_discovery/mergetbj/GRAILS/CatS/glide-dock_SP_1_zrqq_gc4FEset

> <s_m_entry_id>
796

> <s_m_entry_name>
CatS_FEset_compounds_D3R_GC4_answers.8

> <s_m_job_name>
glide-dock_SP_1_zrqq_gc4FEset

> <s_m_source_file>
ligprep_2.maegz

> <s_m_subgroup_title>
glide-dock_SP_1_zrqq_gc4FEset_pv

> <s_m_subgroupid>
glide-dock_SP_1_zrqq_gc4FEset_pv

$$$$
CatS_177
                    3D
 Schrodinger Suite 2023-3.
 91 95  0  0  1  0            999 V2000
   -1.0368   18.3026   -5.0175 C   0  0  0  0  0  0
   -0.9533   16.8541   -5.5406 C   0  0  0  0  0  0
   -1.9780   15.9900   -4.7691 C   0  0  0  0  0  0
   -2.0806   14.5585   -5.3265 C   0  0  0  0  0  0
   -2.4404   14.5773   -6.7934 N   0  3  0  0  0  0
   -1.4869   15.4238   -7.6076 C   0  0  0  0  0  0
   -1.3821   16.8458   -7.0254 C   0  0  0  0  0  0
   -2.6266   13.1783   -7.3202 C   0  0  0  0  0  0
   -3.1383   13.1254   -8.7818 C   0  0  1  0  0  0
   -3.3924   11.6959   -9.3099 C   0  0  0  0  0  0
   -4.4703   10.9893   -8.6437 N   0  0  0  0  0  0
   -5.8047   10.9263   -8.9833 C   0  0  0  0  0  0
   -6.3892   10.0328   -8.1347 C   0  0  0  0  0  0
   -5.3517    9.6240   -7.2490 C   0  0  0  0  0  0
   -4.2037   10.2106   -7.5690 N   0  0  0  0  0  0
   -5.4425    8.6664   -6.1421 C   0  0  0  0  0  0
   -4.4127    7.7412   -5.8859 C   0  0  0  0  0  0
   -4.5620    6.7739   -4.8835 C   0  0  0  0  0  0
   -5.7356    6.7101   -4.1034 C   0  0  0  0  0  0
   -6.7454    7.6799   -4.3167 C   0  0  0  0  0  0
   -6.5958    8.6325   -5.3371 C   0  0  0  0  0  0
   -8.2024    7.7372   -3.3175 S   0  0  0  0  0  0
   -7.9432    9.1083   -2.1549 C   0  0  0  0  0  0
   -9.1874   10.0084   -2.0430 C   0  0  0  0  0  0
   -8.9670   11.1427   -1.1419 N   0  0  0  0  0  0
  -10.2618   11.7143   -0.7600 C   0  0  0  0  0  0
  -10.0719   12.8295    0.2760 C   0  0  0  0  0  0
   -9.1687   13.9447   -0.2812 C   0  0  0  0  0  0
   -7.8593   13.3207   -0.7991 C   0  0  0  0  0  0
   -8.1406   12.1733   -1.7829 C   0  0  0  0  0  0
   -8.8900   14.8299    0.6934 F   0  0  0  0  0  0
   -9.8004   14.5966   -1.2812 F   0  0  0  0  0  0
   -5.9123    5.5772   -3.0984 C   0  0  0  0  0  0
   -4.8782    4.7363   -3.1066 F   0  0  0  0  0  0
   -6.0518    6.0521   -1.8609 F   0  0  0  0  0  0
   -6.9897    4.8645   -3.4220 F   0  0  0  0  0  0
   -7.8337    9.6315   -8.2704 C   0  0  0  0  0  0
   -8.2443    9.8690   -9.6729 N   0  0  2  0  0  0
   -8.0064   11.2544  -10.1660 C   0  0  0  0  0  0
   -6.4939   11.6140  -10.1391 C   0  0  0  0  0  0
   -9.5488    8.9294  -10.3345 S   0  0  0  0  0  0
   -9.3481    7.5360   -9.8814 O   0  0  0  0  0  0
   -9.6703    9.2279  -11.7630 O   0  0  0  0  0  0
  -11.0479    9.5923   -9.4722 C   0  0  0  0  0  0
   -4.3054   13.9160   -8.9115 O   0  0  0  0  0  0
    0.4926   16.3225   -5.3660 C   0  0  0  0  0  0
   -2.0584   18.6869   -5.0605 H   0  0  0  0  0  0
   -0.4120   18.9753   -5.6050 H   0  0  0  0  0  0
   -0.7073   18.3713   -3.9810 H   0  0  0  0  0  0
   -1.7213   15.9561   -3.7128 H   0  0  0  0  0  0
   -2.9664   16.4571   -4.8258 H   0  0  0  0  0  0
   -1.1326   14.0269   -5.1749 H   0  0  0  0  0  0
   -2.8354   14.0059   -4.7576 H   0  0  0  0  0  0
   -0.5006   14.9460   -7.6450 H   0  0  0  0  0  0
   -1.8336   15.5004   -8.6424 H   0  0  0  0  0  0
   -2.3559   17.3339   -7.1270 H   0  0  0  0  0  0
   -0.6873   17.4322   -7.6212 H   0  0  0  0  0  0
   -1.6772   12.6363   -7.2331 H   0  0  0  0  0  0
   -3.3383   12.6445   -6.6836 H   0  0  0  0  0  0
   -2.4075   13.5823   -9.4459 H   0  0  0  0  0  0
   -3.6275   11.7291  -10.3772 H   0  0  0  0  0  0
   -2.4860   11.0944   -9.2205 H   0  0  0  0  0  0
   -3.5107    7.7624   -6.4726 H   0  0  0  0  0  0
   -3.7643    6.0673   -4.7256 H   0  0  0  0  0  0
   -7.3891    9.3394   -5.5035 H   0  0  0  0  0  0
   -7.6703    8.7069   -1.1806 H   0  0  0  0  0  0
   -7.0876    9.6808   -2.5066 H   0  0  0  0  0  0
   -9.5002   10.3617   -3.0269 H   0  0  0  0  0  0
  -10.0047    9.3955   -1.6606 H   0  0  0  0  0  0
  -10.7881   12.0972   -1.6365 H   0  0  0  0  0  0
  -10.8901   10.9343   -0.3278 H   0  0  0  0  0  0
  -11.0380   13.2506    0.5544 H   0  0  0  0  0  0
   -9.6446   12.4156    1.1880 H   0  0  0  0  0  0
   -7.2705   12.9523    0.0397 H   0  0  0  0  0  0
   -7.2540   14.0892   -1.2826 H   0  0  0  0  0  0
   -7.1895   11.7505   -2.1065 H   0  0  0  0  0  0
   -8.6376   12.5554   -2.6762 H   0  0  0  0  0  0
   -7.9722    8.5799   -8.0172 H   0  0  0  0  0  0
   -8.4746   10.2019   -7.5913 H   0  0  0  0  0  0
   -8.5737   11.9572   -9.5523 H   0  0  0  0  0  0
   -8.3851   11.3512  -11.1811 H   0  0  0  0  0  0
   -6.3796   12.6958  -10.0549 H   0  0  0  0  0  0
   -6.0230   11.3214  -11.0811 H   0  0  0  0  0  0
  -11.9229    9.0186   -9.7790 H   0  0  0  0  0  0
  -10.9218    9.5012   -8.3937 H   0  0  0  0  0  0
  -11.1952   10.6385   -9.7412 H   0  0  0  0  0  0
   -5.0043   13.5157   -8.4168 H   0  0  0  0  0  0
    0.6123   15.2985   -5.7198 H   0  0  0  0  0  0
    1.2061   16.9354   -5.9166 H   0  0  0  0  0  0
    0.7924   16.3371   -4.3184 H   0  0  0  0  0  0
   -3.3654   15.0153   -6.8764 H   0  0  0  0  0  0
  1  2  1  0  0  0
  1 47  1  0  0  0
  1 48  1  0  0  0
  1 49  1  0  0  0
  2  7  1  0  0  0
  2  3  1  0  0  0
  2 46  1  0  0  0
  3  4  1  0  0  0
  3 50  1  0  0  0
  3 51  1  0  0  0
  4  5  1  0  0  0
  4 52  1  0  0  0
  4 53  1  0  0  0
  5  6  1  0  0  0
  5  8  1  0  0  0
  5 91  1  0  0  0
  6  7  1  0  0  0
  6 54  1  0  0  0
  6 55  1  0  0  0
  7 56  1  0  0  0
  7 57  1  0  0  0
  8  9  1  0  0  0
  8 58  1  0  0  0
  8 59  1  0  0  0
  9 10  1  0  0  0
  9 45  1  0  0  0
  9 60  1  0  0  0
 10 11  1  0  0  0
 10 61  1  0  0  0
 10 62  1  0  0  0
 11 15  1  0  0  0
 11 12  1  0  0  0
 12 40  1  0  0  0
 12 13  2  0  0  0
 13 14  1  0  0  0
 13 37  1  0  0  0
 14 15  2  0  0  0
 14 16  1  0  0  0
 16 21  1  0  0  0
 16 17  2  0  0  0
 17 18  1  0  0  0
 17 63  1  0  0  0
 18 19  2  0  0  0
 18 64  1  0  0  0
 19 20  1  0  0  0
 19 33  1  0  0  0
 20 21  2  0  0  0
 20 22  1  0  0  0
 21 65  1  0  0  0
 22 23  1  0  0  0
 23 24  1  0  0  0
 23 66  1  0  0  0
 23 67  1  0  0  0
 24 25  1  0  0  0
 24 68  1  0  0  0
 24 69  1  0  0  0
 25 30  1  0  0  0
 25 26  1  0  0  0
 26 27  1  0  0  0
 26 70  1  0  0  0
 26 71  1  0  0  0
 27 28  1  0  0  0
 27 72  1  0  0  0
 27 73  1  0  0  0
 28 29  1  0  0  0
 28 31  1  0  0  0
 28 32  1  0  0  0
 29 30  1  0  0  0
 29 74  1  0  0  0
 29 75  1  0  0  0
 30 76  1  0  0  0
 30 77  1  0  0  0
 33 34  1  0  0  0
 33 35  1  0  0  0
 33 36  1  0  0  0
 37 38  1  0  0  0
 37 78  1  0  0  0
 37 79  1  0  0  0
 38 39  1  0  0  0
 38 41  1  0  0  0
 39 40  1  0  0  0
 39 80  1  0  0  0
 39 81  1  0  0  0
 40 82  1  0  0  0
 40 83  1  0  0  0
 41 42  2  0  0  0
 41 43  2  0  0  0
 41 44  1  0  0  0
 44 84  1  0  0  0
 44 85  1  0  0  0
 44 86  1  0  0  0
 45 87  1  0  0  0
 46 88  1  0  0  0
 46 89  1  0  0  0
 46 90  1  0  0  0
M  CHG  1   5   1
M  END
> <i_epik_Tot_Q>
1

> <i_epik_Tot_abs_Q>
1

> <i_f3d_flags>
0

> <i_i_glide_confnum>
696

> <i_i_glide_lignum>
30

> <i_i_glide_posenum>
281

> <i_i_glide_rotatable_bonds>
12

> <i_lp_mmshare_version>
63125

> <i_m_Source_File_Index>
28

> <i_m_source_file_index>
28

> <b_lp_Chiralities_Consistent>
1

> <b_m_subgroup_collapsed>
0

> <r_canvas_Affinity>
0.13

> <r_epik_Charging_Adjusted_Penalty>
0.327146545350604

> <r_epik_Ionization_Penalty>
  0.3272

> <r_epik_Ionization_Penalty_Charging>
  0.0020

> <r_epik_Ionization_Penalty_Neutral>
  0.3253

> <r_epik_State_Penalty>
  0.3252

> <r_i_docking_score>
-7.75128887937427

> <r_i_glide_ecoul>
-7.10501337051392

> <r_i_glide_eff_state_penalty>
0.3252

> <r_i_glide_einternal>
5.59393501281738

> <r_i_glide_emodel>
-80.7938331102619

> <r_i_glide_energy>
-55.1056771278381

> <r_i_glide_erotb>
0.315097031839985

> <r_i_glide_esite>
-0.06112605574143

> <r_i_glide_evdw>
-48.0006637573242

> <r_i_glide_gscore>
-8.07648887937427

> <r_i_glide_hbond>
0

> <r_i_glide_ligand_efficiency>
-0.168506279986397

> <r_i_glide_ligand_efficiency_ln>
-1.60527325243292

> <r_i_glide_ligand_efficiency_sa>
-0.603766066987543

> <r_i_glide_lipo>
-3.55389988627751

> <r_i_glide_metal>
0

> <r_i_glide_rewards>
-1.31077477575201

> <r_i_glide_rmsd>
0.0351424909700775

> <r_lp_Energy>
52.135386

> <r_lp_tautomer_probability>
1

> <s_epik_cmdline>
J2VwaWtfcHl0aG9uJywgJy1waHQnLCAnMC4wJywgJy1waCcsICc3LjAnLCAnLXRuJywgJzgnLCAnLW1hJywgJzUwMCcsICctaW1hZScsICc8aW5maWxlLm1hZT4nLCAnLW9tYWUnLCAnPG91dGZpbGUubWFlPic=

> <s_epik_input>
W0NIM11DMShbQ0gzXSlbQ0gyXVtDSDJdTihbQ0gyXVtDSDJdMSlbQ0gyXVtDQEhdKFtPSF0pW0NIMl1uMm5jKGMoYzIzKVtDSDJdTihbQ0gyXVtDSDJdMylTKD1PKSg9TylbQ0gzXSktYzRbY0hdW2NIXWMoQyhGKShGKUYpYyhbY0hdNClTW0NIMl1bQ0gyXU4oW0NIMl1bQ0gyXTUpW0NIMl1bQ0gyXUM1KEYpRg==

> <s_glide_core_atoms_lig>
21 20 19 33 34 35 36 18 17 16 14 15 11 12 13 40 39 38 37 41 42 43 44 10 9 45 8 5 4 3 6 7 2 46 1

> <s_glide_core_atoms_ref>
9 8 13 14 34 35 36 12 11 10 16 39 38 18 17 19 20 40 21 45 42 43 22 23 24 44 25 41 26 27 30 29 28 31 32

> <s_glide_core_constrain_type>
snapped_core_restrain

> <s_glide_core_smarts>
c1cc(C(F)(F)F)ccc1-c2nn(c(c23)CCN(C3)S(=O)(=O)C)CC(O)C[N](CC4)CCC4(C)C

> <s_i_glide_gridfile>
glide-grid_1_zrqq

> <s_lp_Force_Field>
S-OPLS

> <s_lp_Variant>
CatS_177-1

> <s_m_Source_File>
glide-dock_SP_1_zrqq_gc4FEset_pv.maegz

> <s_m_Source_Path>
/gpfs/projects/drug_discovery/mergetbj/GRAILS/CatS/glide-dock_SP_1_zrqq_gc4FEset

> <s_m_entry_id>
797

> <s_m_entry_name>
CatS_FEset_compounds_D3R_GC4_answers.28

> <s_m_job_name>
glide-dock_SP_1_zrqq_gc4FEset

> <s_m_source_file>
ligprep_2.maegz

> <s_m_subgroup_title>
glide-dock_SP_1_zrqq_gc4FEset_pv

> <s_m_subgroupid>
glide-dock_SP_1_zrqq_gc4FEset_pv

$$$$
CatS_157
                    3D
 Schrodinger Suite 2023-3.
 91 95  0  0  1  0            999 V2000
   -1.0432   18.2911   -5.0050 C   0  0  0  0  0  0
   -0.9519   16.8469   -5.5379 C   0  0  0  0  0  0
   -1.9736   15.9786   -4.7671 C   0  0  0  0  0  0
   -2.0821   14.5535   -5.3407 C   0  0  0  0  0  0
   -2.4356   14.5807   -6.8018 N   0  3  0  0  0  0
   -1.4788   15.4206   -7.6059 C   0  0  0  0  0  0
   -1.3725   16.8423   -7.0223 C   0  0  0  0  0  0
   -2.6245   13.1833   -7.3313 C   0  0  0  0  0  0
   -3.1370   13.1393   -8.7954 C   0  0  1  0  0  0
   -3.3854   11.7062   -9.3169 C   0  0  0  0  0  0
   -4.4663   11.0052   -8.6446 N   0  0  0  0  0  0
   -5.8033   10.9339   -8.9874 C   0  0  0  0  0  0
   -6.3840   10.0376   -8.1485 C   0  0  0  0  0  0
   -5.3466    9.6215   -7.2615 C   0  0  0  0  0  0
   -4.1977   10.2147   -7.5743 N   0  0  0  0  0  0
   -5.4364    8.6579   -6.1617 C   0  0  0  0  0  0
   -4.4076    7.7310   -5.9029 C   0  0  0  0  0  0
   -4.5657    6.7675   -4.8966 C   0  0  0  0  0  0
   -5.7366    6.7189   -4.1062 C   0  0  0  0  0  0
   -6.7400    7.7005   -4.3141 C   0  0  0  0  0  0
   -6.5911    8.6340   -5.3563 C   0  0  0  0  0  0
   -8.1690    7.7849   -3.2720 S   0  0  0  0  0  0
   -8.5587    9.5590   -3.1951 C   0  0  0  0  0  0
   -9.0275   10.0180   -1.7994 C   0  0  0  0  0  0
   -9.1157   11.4781   -1.7324 N   0  0  2  0  0  0
   -7.7947   12.0559   -1.4623 C   0  0  0  0  0  0
   -7.8561   13.5875   -1.4765 C   0  0  0  0  0  0
   -8.8416   14.0988   -0.4261 C   0  0  0  0  0  0
  -10.2100   13.4121   -0.6285 C   0  0  0  0  0  0
  -10.0486   11.8739   -0.6707 C   0  0  0  0  0  0
  -10.7794   13.8491   -1.7654 F   0  0  0  0  0  0
  -11.0161   13.7386    0.3929 F   0  0  0  0  0  0
   -5.9180    5.5971   -3.0928 C   0  0  0  0  0  0
   -4.8998    4.7361   -3.1171 F   0  0  0  0  0  0
   -6.0269    6.0800   -1.8540 F   0  0  0  0  0  0
   -7.0156    4.9019   -3.3914 F   0  0  0  0  0  0
   -7.8231    9.6269   -8.2830 C   0  0  0  0  0  0
   -8.2504    9.8766   -9.6798 N   0  0  2  0  0  0
   -8.0118   11.2608  -10.1582 C   0  0  0  0  0  0
   -6.4951   11.6134  -10.1444 C   0  0  0  0  0  0
   -9.5436    8.9221  -10.3407 S   0  0  0  0  0  0
   -9.3284    7.5364   -9.9008 O   0  0  0  0  0  0
   -9.6705    9.2372  -11.7700 O   0  0  0  0  0  0
  -11.0388    9.5764   -9.4811 C   0  0  0  0  0  0
   -4.3102   13.9238   -8.9163 O   0  0  0  0  0  0
    0.4955   16.3208   -5.3640 C   0  0  0  0  0  0
   -2.0584   18.6921   -5.0893 H   0  0  0  0  0  0
   -0.3798   18.9619   -5.5531 H   0  0  0  0  0  0
   -0.7584   18.3460   -3.9561 H   0  0  0  0  0  0
   -1.7058   15.9346   -3.7132 H   0  0  0  0  0  0
   -2.9635   16.4439   -4.8104 H   0  0  0  0  0  0
   -1.1418   14.0121   -5.1904 H   0  0  0  0  0  0
   -2.8479   13.9964   -4.7830 H   0  0  0  0  0  0
   -0.4936   14.9456   -7.6400 H   0  0  0  0  0  0
   -1.8166   15.5117   -8.6458 H   0  0  0  0  0  0
   -2.3393   17.3393   -7.1354 H   0  0  0  0  0  0
   -0.6764   17.4220   -7.6163 H   0  0  0  0  0  0
   -1.6842   12.6292   -7.2423 H   0  0  0  0  0  0
   -3.3458   12.6683   -6.6863 H   0  0  0  0  0  0
   -2.3909   13.5852   -9.4530 H   0  0  0  0  0  0
   -3.6054   11.7431  -10.3816 H   0  0  0  0  0  0
   -2.4749   11.1126   -9.2259 H   0  0  0  0  0  0
   -3.5078    7.7384   -6.4971 H   0  0  0  0  0  0
   -3.7820    6.0424   -4.7419 H   0  0  0  0  0  0
   -7.3782    9.3531   -5.5339 H   0  0  0  0  0  0
   -7.6609   10.1053   -3.4750 H   0  0  0  0  0  0
   -9.3124    9.7890   -3.9523 H   0  0  0  0  0  0
  -10.0083    9.5709   -1.6130 H   0  0  0  0  0  0
   -8.3563    9.6346   -1.0261 H   0  0  0  0  0  0
   -7.4216   11.7112   -0.4957 H   0  0  0  0  0  0
   -7.0702   11.7277   -2.2119 H   0  0  0  0  0  0
   -6.8714   14.0017   -1.2819 H   0  0  0  0  0  0
   -8.1514   13.9380   -2.4663 H   0  0  0  0  0  0
   -8.4571   13.8673    0.5698 H   0  0  0  0  0  0
   -8.9544   15.1808   -0.4884 H   0  0  0  0  0  0
  -11.0256   11.4213   -0.8423 H   0  0  0  0  0  0
   -9.6979   11.5293    0.2984 H   0  0  0  0  0  0
   -7.9618    8.5740   -8.0303 H   0  0  0  0  0  0
   -8.4664   10.1940   -7.6034 H   0  0  0  0  0  0
   -8.5552   11.9468   -9.5101 H   0  0  0  0  0  0
   -8.4174   11.4018  -11.1603 H   0  0  0  0  0  0
   -6.3588   12.6914  -10.1022 H   0  0  0  0  0  0
   -6.0367   11.2707  -11.0770 H   0  0  0  0  0  0
  -11.9065    8.9884   -9.7853 H   0  0  0  0  0  0
  -10.9098    9.4850   -8.4024 H   0  0  0  0  0  0
  -11.1902   10.6214   -9.7490 H   0  0  0  0  0  0
   -5.0059   13.5028   -8.4343 H   0  0  0  0  0  0
    0.6208   15.2979   -5.7221 H   0  0  0  0  0  0
    1.2064   16.9439   -5.9042 H   0  0  0  0  0  0
    0.7820   16.3341   -4.3142 H   0  0  0  0  0  0
   -3.3409   15.0414   -6.8683 H   0  0  0  0  0  0
  1  2  1  0  0  0
  1 47  1  0  0  0
  1 48  1  0  0  0
  1 49  1  0  0  0
  2  7  1  0  0  0
  2  3  1  0  0  0
  2 46  1  0  0  0
  3  4  1  0  0  0
  3 50  1  0  0  0
  3 51  1  0  0  0
  4  5  1  0  0  0
  4 52  1  0  0  0
  4 53  1  0  0  0
  5  6  1  0  0  0
  5  8  1  0  0  0
  5 91  1  0  0  0
  6  7  1  0  0  0
  6 54  1  0  0  0
  6 55  1  0  0  0
  7 56  1  0  0  0
  7 57  1  0  0  0
  8  9  1  0  0  0
  8 58  1  0  0  0
  8 59  1  0  0  0
  9 10  1  0  0  0
  9 45  1  0  0  0
  9 60  1  0  0  0
 10 11  1  0  0  0
 10 61  1  0  0  0
 10 62  1  0  0  0
 11 15  1  0  0  0
 11 12  1  0  0  0
 12 40  1  0  0  0
 12 13  2  0  0  0
 13 14  1  0  0  0
 13 37  1  0  0  0
 14 15  2  0  0  0
 14 16  1  0  0  0
 16 21  1  0  0  0
 16 17  2  0  0  0
 17 18  1  0  0  0
 17 63  1  0  0  0
 18 19  2  0  0  0
 18 64  1  0  0  0
 19 20  1  0  0  0
 19 33  1  0  0  0
 20 21  2  0  0  0
 20 22  1  0  0  0
 21 65  1  0  0  0
 22 23  1  0  0  0
 23 24  1  0  0  0
 23 66  1  0  0  0
 23 67  1  0  0  0
 24 25  1  0  0  0
 24 68  1  0  0  0
 24 69  1  0  0  0
 25 30  1  0  0  0
 25 26  1  0  0  0
 26 27  1  0  0  0
 26 70  1  0  0  0
 26 71  1  0  0  0
 27 28  1  0  0  0
 27 72  1  0  0  0
 27 73  1  0  0  0
 28 29  1  0  0  0
 28 74  1  0  0  0
 28 75  1  0  0  0
 29 30  1  0  0  0
 29 31  1  0  0  0
 29 32  1  0  0  0
 30 76  1  0  0  0
 30 77  1  0  0  0
 33 34  1  0  0  0
 33 35  1  0  0  0
 33 36  1  0  0  0
 37 38  1  0  0  0
 37 78  1  0  0  0
 37 79  1  0  0  0
 38 39  1  0  0  0
 38 41  1  0  0  0
 39 40  1  0  0  0
 39 80  1  0  0  0
 39 81  1  0  0  0
 40 82  1  0  0  0
 40 83  1  0  0  0
 41 42  2  0  0  0
 41 43  2  0  0  0
 41 44  1  0  0  0
 44 84  1  0  0  0
 44 85  1  0  0  0
 44 86  1  0  0  0
 45 87  1  0  0  0
 46 88  1  0  0  0
 46 89  1  0  0  0
 46 90  1  0  0  0
M  CHG  1   5   1
M  END
> <i_epik_Tot_Q>
1

> <i_epik_Tot_abs_Q>
1

> <i_f3d_flags>
0

> <i_i_glide_confnum>
2452

> <i_i_glide_lignum>
22

> <i_i_glide_posenum>
285

> <i_i_glide_rotatable_bonds>
12

> <i_lp_mmshare_version>
63125

> <i_m_Source_File_Index>
20

> <i_m_source_file_index>
20

> <b_lp_Chiralities_Consistent>
1

> <b_m_subgroup_collapsed>
0

> <r_canvas_Affinity>
0.14

> <r_epik_Charging_Adjusted_Penalty>
0.0719610846011536

> <r_epik_Ionization_Penalty>
  0.0720

> <r_epik_Ionization_Penalty_Charging>
  0.0020

> <r_epik_Ionization_Penalty_Neutral>
  0.0701

> <r_epik_State_Penalty>
  0.0700

> <r_i_docking_score>
-7.75071535963947

> <r_i_glide_ecoul>
-5.6696310043335

> <r_i_glide_eff_state_penalty>
0.07

> <r_i_glide_einternal>
4.32192802429199

> <r_i_glide_emodel>
-75.9864433725774

> <r_i_glide_energy>
-52.9214582443237

> <r_i_glide_erotb>
0.315097031839985

> <r_i_glide_esite>
-0.0976317213616734

> <r_i_glide_evdw>
-47.2518272399902

> <r_i_glide_gscore>
-7.82071535963947

> <r_i_glide_hbond>
0

> <r_i_glide_ligand_efficiency>
-0.168493812166075

> <r_i_glide_ligand_efficiency_ln>
-1.60515447787757

> <r_i_glide_ligand_efficiency_sa>
-0.60372139419054

> <r_i_glide_lipo>
-3.61194930000856

> <r_i_glide_metal>
0

> <r_i_glide_rewards>
-1.21319535745969

> <r_i_glide_rmsd>
0.0388912030725913

> <r_lp_Energy>
58.119041

> <r_lp_tautomer_probability>
1

> <s_epik_cmdline>
J2VwaWtfcHl0aG9uJywgJy1waHQnLCAnMC4wJywgJy1waCcsICc3LjAnLCAnLXRuJywgJzgnLCAnLW1hJywgJzUwMCcsICctaW1hZScsICc8aW5maWxlLm1hZT4nLCAnLW9tYWUnLCAnPG91dGZpbGUubWFlPic=

> <s_epik_input>
W0NIM11DMShbQ0gzXSlbQ0gyXVtDSDJdTihbQ0gyXVtDSDJdMSlbQ0gyXVtDQEhdKFtPSF0pW0NIMl1uMm5jKGMoYzIzKVtDSDJdTihbQ0gyXVtDSDJdMylTKD1PKSg9TylbQ0gzXSktYzRbY0hdW2NIXWMoQyhGKShGKUYpYyhbY0hdNClTW0NIMl1bQ0gyXU4oW0NIMl01KVtDSDJdW0NIMl1bQ0gyXUM1KEYpRg==

> <s_glide_core_atoms_lig>
21 20 19 33 34 35 36 18 17 16 14 15 11 12 13 40 39 38 37 41 42 43 44 10 9 45 8 5 4 3 6 7 2 46 1

> <s_glide_core_atoms_ref>
9 8 13 14 34 35 36 12 11 10 16 39 38 18 17 19 20 40 21 45 42 43 22 23 24 44 25 41 26 27 30 29 28 31 32

> <s_glide_core_constrain_type>
snapped_core_restrain

> <s_glide_core_smarts>
c1cc(C(F)(F)F)ccc1-c2nn(c(c23)CCN(C3)S(=O)(=O)C)CC(O)C[N](CC4)CCC4(C)C

> <s_i_glide_gridfile>
glide-grid_1_zrqq

> <s_lp_Force_Field>
S-OPLS

> <s_lp_Variant>
CatS_157-1

> <s_m_Source_File>
glide-dock_SP_1_zrqq_gc4FEset_pv.maegz

> <s_m_Source_Path>
/gpfs/projects/drug_discovery/mergetbj/GRAILS/CatS/glide-dock_SP_1_zrqq_gc4FEset

> <s_m_entry_id>
798

> <s_m_entry_name>
CatS_FEset_compounds_D3R_GC4_answers.20

> <s_m_job_name>
glide-dock_SP_1_zrqq_gc4FEset

> <s_m_source_file>
ligprep_2.maegz

> <s_m_subgroup_title>
glide-dock_SP_1_zrqq_gc4FEset_pv

> <s_m_subgroupid>
glide-dock_SP_1_zrqq_gc4FEset_pv

$$$$
CatS_184
                    3D
 Schrodinger Suite 2023-3.
 95 99  0  0  1  0            999 V2000
   -9.6061   13.6132    0.9554 C   0  0  0  0  0  0
   -9.5106   13.0999   -0.4810 C   0  0  2  0  0  0
  -10.4416   11.8922   -0.6978 C   0  0  0  0  0  0
  -10.2873   11.3038   -2.1119 C   0  0  0  0  0  0
   -8.8777   10.9773   -2.4405 N   0  3  2  0  0  0
   -7.9761   12.1390   -2.2439 C   0  0  0  0  0  0
   -8.0727   12.6891   -0.8180 C   0  0  0  0  0  0
   -8.7616   10.4721   -3.8244 C   0  0  0  0  0  0
   -9.3002    9.0514   -4.0276 C   0  0  0  0  0  0
   -8.2081    7.7791   -3.3197 S   0  0  0  0  0  0
   -6.7405    7.6985   -4.3250 C   0  0  0  0  0  0
   -6.5820    8.6138   -5.3789 C   0  0  0  0  0  0
   -5.4273    8.6441   -6.1751 C   0  0  0  0  0  0
   -4.3951    7.7246   -5.8841 C   0  0  0  0  0  0
   -4.5571    6.7768   -4.8686 C   0  0  0  0  0  0
   -5.7462    6.7235   -4.0977 C   0  0  0  0  0  0
   -5.9315    5.5977   -3.0871 C   0  0  0  0  0  0
   -4.9198    4.7372   -3.1205 F   0  0  0  0  0  0
   -6.0277    6.0753   -1.8480 F   0  0  0  0  0  0
   -7.0372    4.9132   -3.3868 F   0  0  0  0  0  0
   -5.3328    9.5933   -7.2822 C   0  0  0  0  0  0
   -6.3802   10.0338   -8.1647 C   0  0  0  0  0  0
   -5.7994   10.9161   -8.9849 C   0  0  0  0  0  0
   -4.4552   10.9830   -8.6511 N   0  0  0  0  0  0
   -4.1892   10.1851   -7.5933 N   0  0  0  0  0  0
   -3.3860   11.7079   -9.3184 C   0  0  0  0  0  0
   -3.1428   13.1401   -8.7915 C   0  0  2  0  0  0
   -2.6335   13.1805   -7.3374 C   0  0  0  0  0  0
   -2.4344   14.5731   -6.7949 N   0  3  0  0  0  0
   -2.0675   14.5497   -5.3423 C   0  0  0  0  0  0
   -1.9637   15.9738   -4.7709 C   0  0  0  0  0  0
   -0.9586   16.8569   -5.5392 C   0  0  0  0  0  0
   -1.3841   16.8448   -7.0172 C   0  0  0  0  0  0
   -1.4919   15.4246   -7.6028 C   0  0  0  0  0  0
   -1.0548   18.2907   -5.0068 C   0  0  0  0  0  0
    0.4933   16.3408   -5.3739 C   0  0  0  0  0  0
   -4.3303   13.9003   -8.9255 O   0  0  0  0  0  0
   -6.4891   11.6148  -10.1383 C   0  0  0  0  0  0
   -8.0059   11.2608  -10.1489 C   0  0  0  0  0  0
   -8.2610    9.8797   -9.6802 N   0  0  1  0  0  0
   -7.8228    9.6169   -8.2887 C   0  0  0  0  0  0
   -9.5435    8.9412  -10.3539 S   0  0  0  0  0  0
   -9.3185    7.5362   -9.9393 O   0  0  0  0  0  0
   -9.6702    9.2661  -11.7713 O   0  0  0  0  0  0
  -11.0388    9.5751   -9.4878 C   0  0  0  0  0  0
   -9.2815   12.8598    1.6694 H   0  0  0  0  0  0
   -8.9886   14.5028    1.0916 H   0  0  0  0  0  0
  -10.6371   13.8710    1.2005 H   0  0  0  0  0  0
   -9.8295   13.8998   -1.1507 H   0  0  0  0  0  0
  -11.4769   12.1656   -0.5351 H   0  0  0  0  0  0
  -10.2108   11.1301    0.0429 H   0  0  0  0  0  0
  -10.6736   12.0068   -2.8559 H   0  0  0  0  0  0
  -10.9078   10.4074   -2.1827 H   0  0  0  0  0  0
   -6.9360   11.8497   -2.4430 H   0  0  0  0  0  0
   -8.2382   12.9139   -2.9638 H   0  0  0  0  0  0
   -7.7332   11.9374   -0.1085 H   0  0  0  0  0  0
   -7.4108   13.5456   -0.7148 H   0  0  0  0  0  0
   -7.7060   10.5434   -4.0913 H   0  0  0  0  0  0
   -9.2716   11.1625   -4.4995 H   0  0  0  0  0  0
   -9.4236    8.8466   -5.0873 H   0  0  0  0  0  0
  -10.2962    8.9406   -3.5960 H   0  0  0  0  0  0
   -7.3543    9.3162   -5.6310 H   0  0  0  0  0  0
   -3.4899    7.7427   -6.4751 H   0  0  0  0  0  0
   -3.7619    6.0655   -4.6955 H   0  0  0  0  0  0
   -3.6153   11.7341  -10.3894 H   0  0  0  0  0  0
   -2.4682   11.1157   -9.2380 H   0  0  0  0  0  0
   -2.4072   13.5886   -9.4567 H   0  0  0  0  0  0
   -1.6957   12.6337   -7.2585 H   0  0  0  0  0  0
   -3.3385   12.6653   -6.6921 H   0  0  0  0  0  0
   -1.1331   14.0182   -5.2093 H   0  0  0  0  0  0
   -2.8149   13.9929   -4.7809 H   0  0  0  0  0  0
   -1.6913   15.9340   -3.7128 H   0  0  0  0  0  0
   -2.9496   16.4367   -4.8007 H   0  0  0  0  0  0
   -2.3546   17.3466   -7.1090 H   0  0  0  0  0  0
   -0.6928   17.4497   -7.6109 H   0  0  0  0  0  0
   -0.5064   14.9599   -7.6394 H   0  0  0  0  0  0
   -1.8198   15.5203   -8.6357 H   0  0  0  0  0  0
   -2.0507   18.7046   -5.1435 H   0  0  0  0  0  0
   -0.3568   18.9593   -5.5164 H   0  0  0  0  0  0
   -0.8295   18.3428   -3.9392 H   0  0  0  0  0  0
    0.6420   15.3344   -5.7545 H   0  0  0  0  0  0
    1.2060   16.9833   -5.8938 H   0  0  0  0  0  0
    0.7872   16.3258   -4.3259 H   0  0  0  0  0  0
   -4.1084   14.8234   -8.9149 H   0  0  0  0  0  0
   -6.3585   12.6910  -10.0761 H   0  0  0  0  0  0
   -6.0348   11.3021  -11.0745 H   0  0  0  0  0  0
   -8.5479   11.9390   -9.4962 H   0  0  0  0  0  0
   -8.4061   11.4055  -11.1496 H   0  0  0  0  0  0
   -7.9535    8.5694   -8.0480 H   0  0  0  0  0  0
   -8.4545   10.1776   -7.6040 H   0  0  0  0  0  0
  -11.9150    9.0456   -9.8617 H   0  0  0  0  0  0
  -10.9473    9.3958   -8.4151 H   0  0  0  0  0  0
  -11.1506   10.6350   -9.6778 H   0  0  0  0  0  0
   -3.3363   15.0076   -6.8581 H   0  0  0  0  0  0
   -8.5662   10.2505   -1.8144 H   0  0  0  0  0  0
  1  2  1  0  0  0
  1 46  1  0  0  0
  1 47  1  0  0  0
  1 48  1  0  0  0
  2  7  1  0  0  0
  2  3  1  0  0  0
  2 49  1  0  0  0
  3  4  1  0  0  0
  3 50  1  0  0  0
  3 51  1  0  0  0
  4  5  1  0  0  0
  4 52  1  0  0  0
  4 53  1  0  0  0
  5  6  1  0  0  0
  5  8  1  0  0  0
  5 95  1  0  0  0
  6  7  1  0  0  0
  6 54  1  0  0  0
  6 55  1  0  0  0
  7 56  1  0  0  0
  7 57  1  0  0  0
  8  9  1  0  0  0
  8 58  1  0  0  0
  8 59  1  0  0  0
  9 10  1  0  0  0
  9 60  1  0  0  0
  9 61  1  0  0  0
 10 11  1  0  0  0
 11 16  1  0  0  0
 11 12  2  0  0  0
 12 13  1  0  0  0
 12 62  1  0  0  0
 13 14  2  0  0  0
 13 21  1  0  0  0
 14 15  1  0  0  0
 14 63  1  0  0  0
 15 16  2  0  0  0
 15 64  1  0  0  0
 16 17  1  0  0  0
 17 18  1  0  0  0
 17 19  1  0  0  0
 17 20  1  0  0  0
 21 25  2  0  0  0
 21 22  1  0  0  0
 22 41  1  0  0  0
 22 23  2  0  0  0
 23 24  1  0  0  0
 23 38  1  0  0  0
 24 25  1  0  0  0
 24 26  1  0  0  0
 26 27  1  0  0  0
 26 65  1  0  0  0
 26 66  1  0  0  0
 27 28  1  0  0  0
 27 37  1  0  0  0
 27 67  1  0  0  0
 28 29  1  0  0  0
 28 68  1  0  0  0
 28 69  1  0  0  0
 29 34  1  0  0  0
 29 30  1  0  0  0
 29 94  1  0  0  0
 30 31  1  0  0  0
 30 70  1  0  0  0
 30 71  1  0  0  0
 31 32  1  0  0  0
 31 72  1  0  0  0
 31 73  1  0  0  0
 32 33  1  0  0  0
 32 35  1  0  0  0
 32 36  1  0  0  0
 33 34  1  0  0  0
 33 74  1  0  0  0
 33 75  1  0  0  0
 34 76  1  0  0  0
 34 77  1  0  0  0
 35 78  1  0  0  0
 35 79  1  0  0  0
 35 80  1  0  0  0
 36 81  1  0  0  0
 36 82  1  0  0  0
 36 83  1  0  0  0
 37 84  1  0  0  0
 38 39  1  0  0  0
 38 85  1  0  0  0
 38 86  1  0  0  0
 39 40  1  0  0  0
 39 87  1  0  0  0
 39 88  1  0  0  0
 40 41  1  0  0  0
 40 42  1  0  0  0
 41 89  1  0  0  0
 41 90  1  0  0  0
 42 43  2  0  0  0
 42 44  2  0  0  0
 42 45  1  0  0  0
 45 91  1  0  0  0
 45 92  1  0  0  0
 45 93  1  0  0  0
M  CHG  2   5   1  29   1
M  END
> <i_epik_Tot_Q>
2

> <i_epik_Tot_abs_Q>
2

> <i_f3d_flags>
0

> <i_i_glide_confnum>
451

> <i_i_glide_lignum>
34

> <i_i_glide_posenum>
357

> <i_i_glide_rotatable_bonds>
12

> <i_lp_mmshare_version>
63125

> <i_m_Source_File_Index>
32

> <i_m_source_file_index>
32

> <b_lp_Chiralities_Consistent>
1

> <b_m_subgroup_collapsed>
0

> <r_canvas_Affinity>
0.18

> <r_epik_Charging_Adjusted_Penalty>
0.0072322524698725

> <r_epik_Ionization_Penalty>
  0.0073

> <r_epik_Ionization_Penalty_Charging>
  0.0072

> <r_epik_Ionization_Penalty_Neutral>
  0.0001

> <r_epik_State_Penalty>
  0.0000

> <r_i_docking_score>
-7.75010723650554

> <r_i_glide_ecoul>
-6.34908437728882

> <r_i_glide_eff_state_penalty>
0

> <r_i_glide_einternal>
3.75743532180786

> <r_i_glide_emodel>
-76.080563436282

> <r_i_glide_energy>
-52.5503630638123

> <r_i_glide_erotb>
0.400341925304696

> <r_i_glide_esite>
-0.0592120966928444

> <r_i_glide_evdw>
-46.2012786865234

> <r_i_glide_gscore>
-7.75010723650554

> <r_i_glide_hbond>
0

> <r_i_glide_ligand_efficiency>
-0.172224605255679

> <r_i_glide_ligand_efficiency_ln>
-1.61236767778049

> <r_i_glide_ligand_efficiency_sa>
-0.612584544525067

> <r_i_glide_lipo>
-3.60847309372834

> <r_i_glide_metal>
0

> <r_i_glide_rewards>
-1.22033738046956

> <r_i_glide_rmsd>
0.0403198570212077

> <r_lp_Energy>
72.372025

> <r_lp_tautomer_probability>
1

> <s_epik_cmdline>
J2VwaWtfcHl0aG9uJywgJy1waHQnLCAnMC4wJywgJy1waCcsICc3LjAnLCAnLXRuJywgJzgnLCAnLW1hJywgJzUwMCcsICctaW1hZScsICc8aW5maWxlLm1hZT4nLCAnLW9tYWUnLCAnPG91dGZpbGUubWFlPic=

> <s_epik_input>
W0NIM11bQ0hdMVtDSDJdW0NIMl1OKFtDSDJdW0NIMl0xKVtDSDJdW0NIMl1TYzJbY0hdYyhbY0hdW2NIXWMyQyhGKShGKUYpLWMzbm4oYyhjMzQpW0NIMl1bQ0gyXU4oW0NIMl00KVMoPU8pKD1PKVtDSDNdKVtDSDJdW0NAQEhdKFtPSF0pW0NIMl1OKFtDSDJdW0NIMl01KVtDSDJdW0NIMl1DNShbQ0gzXSlbQ0gzXQ==

> <s_glide_core_atoms_lig>
12 11 16 17 18 19 20 15 14 13 21 25 24 23 22 38 39 40 41 42 43 44 45 26 27 37 28 29 30 31 34 33 32 36 35

> <s_glide_core_atoms_ref>
9 8 13 14 34 35 36 12 11 10 16 39 38 18 17 19 20 40 21 45 42 43 22 23 24 44 25 41 26 27 30 29 28 31 32

> <s_glide_core_constrain_type>
snapped_core_restrain

> <s_glide_core_smarts>
c1cc(C(F)(F)F)ccc1-c2nn(c(c23)CCN(C3)S(=O)(=O)C)CC(O)C[N](CC4)CCC4(C)C

> <s_i_glide_gridfile>
glide-grid_1_zrqq

> <s_lp_Force_Field>
S-OPLS

> <s_lp_Variant>
CatS_184-1

> <s_m_Source_File>
glide-dock_SP_1_zrqq_gc4FEset_pv.maegz

> <s_m_Source_Path>
/gpfs/projects/drug_discovery/mergetbj/GRAILS/CatS/glide-dock_SP_1_zrqq_gc4FEset

> <s_m_entry_id>
799

> <s_m_entry_name>
CatS_FEset_compounds_D3R_GC4_answers.32

> <s_m_job_name>
glide-dock_SP_1_zrqq_gc4FEset

> <s_m_source_file>
ligprep_2.maegz

> <s_m_subgroup_title>
glide-dock_SP_1_zrqq_gc4FEset_pv

> <s_m_subgroupid>
glide-dock_SP_1_zrqq_gc4FEset_pv

$$$$
CatS_9
                    3D
 Schrodinger Suite 2023-3.
102107  0  0  1  0            999 V2000
  -10.8453   13.4279   -2.8591 C   0  0  0  0  0  0
  -10.6470   12.9539   -1.4050 C   0  0  0  0  0  0
   -9.7380   13.9297   -0.6269 C   0  0  0  0  0  0
   -8.2931   13.8781   -1.1424 C   0  0  0  0  0  0
   -7.7551   12.4371   -1.1543 C   0  0  0  0  0  0
   -8.6463   11.5526   -1.9493 N   0  3  2  0  0  0
  -10.0258   11.5389   -1.3857 C   0  0  0  0  0  0
   -8.0709   10.1999   -2.1694 C   0  0  0  0  0  0
   -8.8079    9.4096   -3.2714 C   0  0  0  0  0  0
   -8.2254    7.6930   -3.3823 S   0  0  0  0  0  0
   -6.7360    7.6883   -4.3320 C   0  0  0  0  0  0
   -6.5844    8.6367   -5.3599 C   0  0  0  0  0  0
   -5.4266    8.6666   -6.1524 C   0  0  0  0  0  0
   -4.3957    7.7451   -5.8891 C   0  0  0  0  0  0
   -4.5458    6.7772   -4.8802 C   0  0  0  0  0  0
   -5.7247    6.7166   -4.1068 C   0  0  0  0  0  0
   -5.9150    5.5821   -3.1017 C   0  0  0  0  0  0
   -4.8873    4.7384   -3.1099 F   0  0  0  0  0  0
   -6.0532    6.0528   -1.8623 F   0  0  0  0  0  0
   -6.9968    4.8783   -3.4295 F   0  0  0  0  0  0
   -5.3445    9.6265   -7.2620 C   0  0  0  0  0  0
   -6.3852   10.0377   -8.1344 C   0  0  0  0  0  0
   -5.8012   10.9455   -8.9754 C   0  0  0  0  0  0
   -4.4692   11.0062   -8.6336 N   0  0  0  0  0  0
   -4.1939   10.2205   -7.5640 N   0  0  0  0  0  0
   -3.3873   11.7127   -9.3007 C   0  0  0  0  0  0
   -3.1591   13.1373   -8.7705 C   0  0  0  0  0  0
   -2.6132   13.1969   -7.3235 C   0  0  0  0  0  0
   -2.4406   14.5867   -6.7938 N   0  3  1  0  0  0
   -2.0749   14.5655   -5.3447 C   0  0  0  0  0  0
   -1.9827   15.9925   -4.7667 C   0  0  0  0  0  0
   -0.9552   16.8324   -5.5487 C   0  0  1  0  0  0
   -1.3919   16.8578   -7.0233 C   0  0  0  0  0  0
   -1.4953   15.4324   -7.5989 C   0  0  0  0  0  0
   -0.7668   18.1878   -5.0180 N   0  0  0  0  0  0
   -1.7000   18.8159   -4.0948 C   0  0  0  0  0  0
   -1.2007   20.2568   -3.9268 C   0  0  0  0  0  0
    0.1960   20.2937   -4.5535 C   0  0  0  0  0  0
    0.2957   18.9637   -5.2764 C   0  0  0  0  0  0
    1.2423   18.6658   -5.9980 O   0  0  0  0  0  0
   -6.4908   11.6188  -10.1238 C   0  0  0  0  0  0
   -8.0085   11.2776  -10.1525 C   0  0  0  0  0  0
   -8.2528    9.8906   -9.6750 N   0  0  1  0  0  0
   -7.8231    9.6372   -8.2819 C   0  0  0  0  0  0
   -9.5357    8.9323  -10.3387 S   0  0  0  0  0  0
   -9.3137    7.5499   -9.9098 O   0  0  0  0  0  0
   -9.6587    9.2493  -11.7729 O   0  0  0  0  0  0
  -11.0334    9.5774   -9.4869 C   0  0  0  0  0  0
  -12.0332   12.9024   -0.7427 C   0  0  0  0  0  0
  -11.2676   14.4326   -2.8921 H   0  0  0  0  0  0
   -9.9152   13.4538   -3.4243 H   0  0  0  0  0  0
  -11.5276   12.7724   -3.4011 H   0  0  0  0  0  0
   -9.7455   13.6693    0.4335 H   0  0  0  0  0  0
  -10.1261   14.9481   -0.6933 H   0  0  0  0  0  0
   -7.6703   14.5062   -0.5104 H   0  0  0  0  0  0
   -8.2339   14.3048   -2.1439 H   0  0  0  0  0  0
   -7.6804   12.0603   -0.1329 H   0  0  0  0  0  0
   -6.7463   12.4262   -1.5701 H   0  0  0  0  0  0
  -10.6836   10.8784   -1.9494 H   0  0  0  0  0  0
   -9.9957   11.1461   -0.3670 H   0  0  0  0  0  0
   -8.0704    9.6435   -1.2298 H   0  0  0  0  0  0
   -7.0255   10.3023   -2.4676 H   0  0  0  0  0  0
   -8.7164    9.9079   -4.2356 H   0  0  0  0  0  0
   -9.8734    9.3373   -3.0658 H   0  0  0  0  0  0
   -7.3722    9.3423   -5.5591 H   0  0  0  0  0  0
   -3.4947    7.7567   -6.4851 H   0  0  0  0  0  0
   -3.7527    6.0617   -4.7244 H   0  0  0  0  0  0
   -3.6173   11.7526  -10.3635 H   0  0  0  0  0  0
   -2.4737   11.1240   -9.2137 H   0  0  0  0  0  0
   -4.0867   13.7066   -8.8428 H   0  0  0  0  0  0
   -2.4518   13.6132   -9.4500 H   0  0  0  0  0  0
   -1.6618   12.6578   -7.2633 H   0  0  0  0  0  0
   -3.3063   12.6684   -6.6619 H   0  0  0  0  0  0
   -1.1182   14.0472   -5.2065 H   0  0  0  0  0  0
   -2.8246   13.9971   -4.7827 H   0  0  0  0  0  0
   -1.7059   15.9396   -3.7138 H   0  0  0  0  0  0
   -2.9691   16.4572   -4.8090 H   0  0  0  0  0  0
    0.0084   16.3233   -5.4802 H   0  0  0  0  0  0
   -2.3554   17.3616   -7.1202 H   0  0  0  0  0  0
   -0.6845   17.4299   -7.6236 H   0  0  0  0  0  0
   -0.5069   14.9591   -7.6246 H   0  0  0  0  0  0
   -1.8421   15.5097   -8.6314 H   0  0  0  0  0  0
   -2.7198   18.7940   -4.4821 H   0  0  0  0  0  0
   -1.6832   18.2905   -3.1387 H   0  0  0  0  0  0
   -1.1810   20.5551   -2.8782 H   0  0  0  0  0  0
   -1.8618   20.9482   -4.4509 H   0  0  0  0  0  0
    0.9759   20.3544   -3.7943 H   0  0  0  0  0  0
    0.3160   21.1264   -5.2459 H   0  0  0  0  0  0
   -6.3568   12.7025  -10.0641 H   0  0  0  0  0  0
   -6.0262   11.2950  -11.0565 H   0  0  0  0  0  0
   -8.5626   11.9603   -9.5060 H   0  0  0  0  0  0
   -8.4030   11.4106  -11.1596 H   0  0  0  0  0  0
   -7.9619    8.5827   -8.0353 H   0  0  0  0  0  0
   -8.4679   10.2030   -7.6031 H   0  0  0  0  0  0
  -11.9036    8.9967   -9.8034 H   0  0  0  0  0  0
  -10.9106    9.4776   -8.4072 H   0  0  0  0  0  0
  -11.1859   10.6242   -9.7512 H   0  0  0  0  0  0
  -12.5171   13.8793   -0.7496 H   0  0  0  0  0  0
  -12.6976   12.2069   -1.2575 H   0  0  0  0  0  0
  -11.9708   12.5763    0.2935 H   0  0  0  0  0  0
   -8.7154   11.9795   -2.8619 H   0  0  0  0  0  0
   -3.3463   15.0406   -6.8457 H   0  0  0  0  0  0
  1  2  1  0  0  0
  1 50  1  0  0  0
  1 51  1  0  0  0
  1 52  1  0  0  0
  2  7  1  0  0  0
  2  3  1  0  0  0
  2 49  1  0  0  0
  3  4  1  0  0  0
  3 53  1  0  0  0
  3 54  1  0  0  0
  4  5  1  0  0  0
  4 55  1  0  0  0
  4 56  1  0  0  0
  5  6  1  0  0  0
  5 57  1  0  0  0
  5 58  1  0  0  0
  6  7  1  0  0  0
  6  8  1  0  0  0
  6101  1  0  0  0
  7 59  1  0  0  0
  7 60  1  0  0  0
  8  9  1  0  0  0
  8 61  1  0  0  0
  8 62  1  0  0  0
  9 10  1  0  0  0
  9 63  1  0  0  0
  9 64  1  0  0  0
 10 11  1  0  0  0
 11 16  1  0  0  0
 11 12  2  0  0  0
 12 13  1  0  0  0
 12 65  1  0  0  0
 13 14  2  0  0  0
 13 21  1  0  0  0
 14 15  1  0  0  0
 14 66  1  0  0  0
 15 16  2  0  0  0
 15 67  1  0  0  0
 16 17  1  0  0  0
 17 18  1  0  0  0
 17 19  1  0  0  0
 17 20  1  0  0  0
 21 25  2  0  0  0
 21 22  1  0  0  0
 22 44  1  0  0  0
 22 23  2  0  0  0
 23 24  1  0  0  0
 23 41  1  0  0  0
 24 25  1  0  0  0
 24 26  1  0  0  0
 26 27  1  0  0  0
 26 68  1  0  0  0
 26 69  1  0  0  0
 27 28  1  0  0  0
 27 70  1  0  0  0
 27 71  1  0  0  0
 28 29  1  0  0  0
 28 72  1  0  0  0
 28 73  1  0  0  0
 29 34  1  0  0  0
 29 30  1  0  0  0
 29102  1  0  0  0
 30 31  1  0  0  0
 30 74  1  0  0  0
 30 75  1  0  0  0
 31 32  1  0  0  0
 31 76  1  0  0  0
 31 77  1  0  0  0
 32 33  1  0  0  0
 32 35  1  0  0  0
 32 78  1  0  0  0
 33 34  1  0  0  0
 33 79  1  0  0  0
 33 80  1  0  0  0
 34 81  1  0  0  0
 34 82  1  0  0  0
 35 39  1  0  0  0
 35 36  1  0  0  0
 36 37  1  0  0  0
 36 83  1  0  0  0
 36 84  1  0  0  0
 37 38  1  0  0  0
 37 85  1  0  0  0
 37 86  1  0  0  0
 38 39  1  0  0  0
 38 87  1  0  0  0
 38 88  1  0  0  0
 39 40  2  0  0  0
 41 42  1  0  0  0
 41 89  1  0  0  0
 41 90  1  0  0  0
 42 43  1  0  0  0
 42 91  1  0  0  0
 42 92  1  0  0  0
 43 44  1  0  0  0
 43 45  1  0  0  0
 44 93  1  0  0  0
 44 94  1  0  0  0
 45 46  2  0  0  0
 45 47  2  0  0  0
 45 48  1  0  0  0
 48 95  1  0  0  0
 48 96  1  0  0  0
 48 97  1  0  0  0
 49 98  1  0  0  0
 49 99  1  0  0  0
 49100  1  0  0  0
M  CHG  2   6   1  29   1
M  END
> <i_epik_Tot_Q>
2

> <i_epik_Tot_abs_Q>
2

> <i_f3d_flags>
0

> <i_i_glide_confnum>
14

> <i_i_glide_lignum>
2

> <i_i_glide_posenum>
123

> <i_i_glide_rotatable_bonds>
12

> <i_lp_mmshare_version>
63125

> <i_m_Source_File_Index>
2

> <i_m_source_file_index>
2

> <b_lp_Chiralities_Consistent>
1

> <b_m_subgroup_collapsed>
0

> <r_canvas_Affinity>
0.14

> <r_epik_Charging_Adjusted_Penalty>
0.0202500420923194

> <r_epik_Ionization_Penalty>
  0.0203

> <r_epik_Ionization_Penalty_Charging>
  0.0203

> <r_epik_Ionization_Penalty_Neutral>
  0.0000

> <r_epik_State_Penalty>
  0.0000

> <r_i_docking_score>
-7.73473864243126

> <r_i_glide_ecoul>
-6.82260704040527

> <r_i_glide_eff_state_penalty>
0

> <r_i_glide_einternal>
4.69671249389648

> <r_i_glide_emodel>
-80.7134247774718

> <r_i_glide_energy>
-53.2808856964111

> <r_i_glide_erotb>
0.304056533407209

> <r_i_glide_esite>
-0.0582190745173648

> <r_i_glide_evdw>
-46.4582786560059

> <r_i_glide_gscore>
-7.73473864243126

> <r_i_glide_hbond>
0

> <r_i_glide_ligand_efficiency>
-0.157851809029209

> <r_i_glide_ligand_efficiency_ln>
-1.58115755916436

> <r_i_glide_ligand_efficiency_sa>
-0.5776280253687

> <r_i_glide_lipo>
-3.40891473520431

> <r_i_glide_metal>
0

> <r_i_glide_rewards>
-1.22535637725571

> <r_i_glide_rmsd>
0.0397622465744753

> <r_lp_Energy>
66.191875

> <r_lp_tautomer_probability>
1

> <s_epik_cmdline>
J2VwaWtfcHl0aG9uJywgJy1waHQnLCAnMC4wJywgJy1waCcsICc3LjAnLCAnLXRuJywgJzgnLCAnLW1hJywgJzUwMCcsICctaW1hZScsICc8aW5maWxlLm1hZT4nLCAnLW9tYWUnLCAnPG91dGZpbGUubWFlPic=

> <s_epik_input>
W0NIM11DMShbQ0gzXSlbQ0gyXVtDSDJdW0NIMl1OKFtDSDJdMSlbQ0gyXVtDSDJdU2MyW2NIXWMoW2NIXVtjSF1jMkMoRikoRilGKS1jM25uKGMoYzM0KVtDSDJdW0NIMl1OKFtDSDJdNClTKD1PKSg9TylbQ0gzXSlbQ0gyXVtDSDJdW0NIMl1ONVtDSDJdW0NIMl1bQ0hdKFtDSDJdW0NIMl01KU42W0NIMl1bQ0gyXVtDSDJdQzY9Tw==

> <s_glide_core_atoms_lig>
12 11 16 17 18 19 20 15 14 13 21 25 24 23 22 41 42 43 44 45 46 47 48 26 27 28 29 30 31 32 33 34

> <s_glide_core_atoms_ref>
9 8 13 14 34 35 36 12 11 10 16 39 38 18 17 19 20 40 21 45 42 43 22 23 24 25 41 26 27 28 29 30

> <s_glide_core_constrain_type>
snapped_core_restrain

> <s_glide_core_smarts>
c1cc(C(F)(F)F)ccc1-c2nn(c(c23)CCN(C3)S(=O)(=O)C)CCC[N]4CCCCC4

> <s_i_glide_gridfile>
glide-grid_1_zrqq

> <s_lp_Force_Field>
S-OPLS

> <s_lp_Variant>
CatS_9-1

> <s_m_Source_File>
glide-dock_SP_1_zrqq_gc4FEset_pv.maegz

> <s_m_Source_Path>
/gpfs/projects/drug_discovery/mergetbj/GRAILS/CatS/glide-dock_SP_1_zrqq_gc4FEset

> <s_m_entry_id>
800

> <s_m_entry_name>
CatS_FEset_compounds_D3R_GC4_answers.2

> <s_m_job_name>
glide-dock_SP_1_zrqq_gc4FEset

> <s_m_source_file>
ligprep_2.maegz

> <s_m_subgroup_title>
glide-dock_SP_1_zrqq_gc4FEset_pv

> <s_m_subgroupid>
glide-dock_SP_1_zrqq_gc4FEset_pv

$$$$
CatS_84
                    3D
 Schrodinger Suite 2023-3.
 87 91  0  0  1  0            999 V2000
  -11.0334    9.5789   -9.4848 C   0  0  0  0  0  0
   -9.5433    8.9215  -10.3503 S   0  0  0  0  0  0
   -9.3293    7.5363   -9.9233 O   0  0  0  0  0  0
   -9.6700    9.2379  -11.7819 O   0  0  0  0  0  0
   -8.2488    9.8711   -9.6916 N   0  0  1  0  0  0
   -8.0067   11.2585  -10.1685 C   0  0  0  0  0  0
   -6.4936   11.6144  -10.1416 C   0  0  0  0  0  0
   -5.8037   10.9337   -8.9947 C   0  0  0  0  0  0
   -6.3925   10.0320   -8.1485 C   0  0  0  0  0  0
   -5.3597    9.6258   -7.2692 C   0  0  0  0  0  0
   -4.2041   10.2145   -7.5719 N   0  0  0  0  0  0
   -4.4730   10.9998   -8.6455 N   0  0  0  0  0  0
   -3.3882   11.7097   -9.3116 C   0  0  0  0  0  0
   -3.1448   13.1417   -8.7908 C   0  0  2  0  0  0
   -2.6289   13.1958   -7.3283 C   0  0  0  0  0  0
   -2.4423   14.5860   -6.7949 N   0  3  1  0  0  0
   -2.0794   14.5604   -5.3411 C   0  0  0  0  0  0
   -1.9919   15.9895   -4.7667 C   0  0  0  0  0  0
   -0.9735   16.8420   -5.5416 C   0  0  0  0  0  0
   -1.3900   16.8565   -7.0236 C   0  0  2  0  0  0
   -1.4883   15.4271   -7.6007 C   0  0  0  0  0  0
   -0.4714   17.6174   -7.7749 O   0  0  0  0  0  0
   -4.3262   13.9036   -8.9213 O   0  0  0  0  0  0
   -5.4573    8.6653   -6.1568 C   0  0  0  0  0  0
   -4.4396    7.7275   -5.9028 C   0  0  0  0  0  0
   -4.6046    6.7586   -4.8975 C   0  0  0  0  0  0
   -5.7766    6.7169   -4.1114 C   0  0  0  0  0  0
   -6.7750    7.7030   -4.3254 C   0  0  0  0  0  0
   -6.6117    8.6506   -5.3565 C   0  0  0  0  0  0
   -8.2527    7.7701   -3.3508 S   0  0  0  0  0  0
   -8.0162    9.1443   -2.1886 C   0  0  0  0  0  0
   -9.2372   10.0775   -2.1179 C   0  0  0  0  0  0
   -8.9600   11.2915   -1.3053 N   0  3  1  0  0  0
   -8.1948   12.3273   -2.0481 C   0  0  0  0  0  0
   -7.7856   13.4733   -1.1062 C   0  0  0  0  0  0
   -8.9983   14.0987   -0.3967 C   0  0  2  0  0  0
   -9.8238   13.0023    0.2943 C   0  0  0  0  0  0
  -10.1844   11.8712   -0.6878 C   0  0  0  0  0  0
   -9.7588   14.7438   -1.2869 F   0  0  0  0  0  0
   -5.9637    5.5932   -3.0965 C   0  0  0  0  0  0
   -4.9450    4.7365   -3.1093 F   0  0  0  0  0  0
   -6.0834    6.0815   -1.8629 F   0  0  0  0  0  0
   -7.0562    4.9011   -3.4073 F   0  0  0  0  0  0
   -7.8280    9.6174   -8.2993 C   0  0  0  0  0  0
  -10.8874    9.5149   -8.4064 H   0  0  0  0  0  0
  -11.1959   10.6185   -9.7649 H   0  0  0  0  0  0
  -11.9076    8.9885   -9.7614 H   0  0  0  0  0  0
   -8.5711   11.9523   -9.5408 H   0  0  0  0  0  0
   -8.3962   11.3679  -11.1786 H   0  0  0  0  0  0
   -6.3717   12.6988  -10.0795 H   0  0  0  0  0  0
   -6.0358   11.3134  -11.0880 H   0  0  0  0  0  0
   -3.6138   11.7427  -10.3777 H   0  0  0  0  0  0
   -2.4781   11.1169   -9.2141 H   0  0  0  0  0  0
   -2.4222   13.6003   -9.4613 H   0  0  0  0  0  0
   -1.6839   12.6495   -7.2496 H   0  0  0  0  0  0
   -3.3400   12.6634   -6.6895 H   0  0  0  0  0  0
   -1.1281   14.0430   -5.1940 H   0  0  0  0  0  0
   -2.8247   13.9885   -4.7759 H   0  0  0  0  0  0
   -1.7183   15.9530   -3.7121 H   0  0  0  0  0  0
   -2.9738   16.4630   -4.8115 H   0  0  0  0  0  0
    0.0294   16.4244   -5.4215 H   0  0  0  0  0  0
   -0.9291   17.8569   -5.1316 H   0  0  0  0  0  0
   -2.3633   17.3426   -7.1189 H   0  0  0  0  0  0
   -1.8145   15.5057   -8.6431 H   0  0  0  0  0  0
   -0.5001   14.9602   -7.6255 H   0  0  0  0  0  0
    0.3944   17.2522   -7.6773 H   0  0  0  0  0  0
   -4.1070   14.8237   -8.9236 H   0  0  0  0  0  0
   -3.5418    7.7312   -6.5009 H   0  0  0  0  0  0
   -3.8192    6.0345   -4.7462 H   0  0  0  0  0  0
   -7.3859    9.3802   -5.5371 H   0  0  0  0  0  0
   -7.7914    8.7264   -1.2067 H   0  0  0  0  0  0
   -7.1330    9.6996   -2.5061 H   0  0  0  0  0  0
   -9.5365   10.3705   -3.1238 H   0  0  0  0  0  0
  -10.0796    9.5310   -1.6895 H   0  0  0  0  0  0
   -7.3006   11.9022   -2.5073 H   0  0  0  0  0  0
   -8.8020   12.7122   -2.8693 H   0  0  0  0  0  0
   -7.0764   13.1012   -0.3651 H   0  0  0  0  0  0
   -7.2629   14.2424   -1.6724 H   0  0  0  0  0  0
   -8.6656   14.8427    0.3326 H   0  0  0  0  0  0
  -10.7325   13.4347    0.7115 H   0  0  0  0  0  0
   -9.2707   12.5961    1.1427 H   0  0  0  0  0  0
  -10.8523   12.2495   -1.4662 H   0  0  0  0  0  0
  -10.7336   11.0974   -0.1496 H   0  0  0  0  0  0
   -7.9654    8.5602   -8.0694 H   0  0  0  0  0  0
   -8.4905   10.1594   -7.6189 H   0  0  0  0  0  0
   -3.3409   15.0496   -6.8417 H   0  0  0  0  0  0
   -8.3677   10.9988   -0.5416 H   0  0  0  0  0  0
  1  2  1  0  0  0
  1 45  1  0  0  0
  1 46  1  0  0  0
  1 47  1  0  0  0
  2  3  2  0  0  0
  2  4  2  0  0  0
  2  5  1  0  0  0
  5 44  1  0  0  0
  5  6  1  0  0  0
  6  7  1  0  0  0
  6 48  1  0  0  0
  6 49  1  0  0  0
  7  8  1  0  0  0
  7 50  1  0  0  0
  7 51  1  0  0  0
  8 12  1  0  0  0
  8  9  2  0  0  0
  9 10  1  0  0  0
  9 44  1  0  0  0
 10 11  2  0  0  0
 10 24  1  0  0  0
 11 12  1  0  0  0
 12 13  1  0  0  0
 13 14  1  0  0  0
 13 52  1  0  0  0
 13 53  1  0  0  0
 14 15  1  0  0  0
 14 23  1  0  0  0
 14 54  1  0  0  0
 15 16  1  0  0  0
 15 55  1  0  0  0
 15 56  1  0  0  0
 16 21  1  0  0  0
 16 17  1  0  0  0
 16 86  1  0  0  0
 17 18  1  0  0  0
 17 57  1  0  0  0
 17 58  1  0  0  0
 18 19  1  0  0  0
 18 59  1  0  0  0
 18 60  1  0  0  0
 19 20  1  0  0  0
 19 61  1  0  0  0
 19 62  1  0  0  0
 20 21  1  0  0  0
 20 22  1  0  0  0
 20 63  1  0  0  0
 21 64  1  0  0  0
 21 65  1  0  0  0
 22 66  1  0  0  0
 23 67  1  0  0  0
 24 29  1  0  0  0
 24 25  2  0  0  0
 25 26  1  0  0  0
 25 68  1  0  0  0
 26 27  2  0  0  0
 26 69  1  0  0  0
 27 28  1  0  0  0
 27 40  1  0  0  0
 28 29  2  0  0  0
 28 30  1  0  0  0
 29 70  1  0  0  0
 30 31  1  0  0  0
 31 32  1  0  0  0
 31 71  1  0  0  0
 31 72  1  0  0  0
 32 33  1  0  0  0
 32 73  1  0  0  0
 32 74  1  0  0  0
 33 38  1  0  0  0
 33 34  1  0  0  0
 33 87  1  0  0  0
 34 35  1  0  0  0
 34 75  1  0  0  0
 34 76  1  0  0  0
 35 36  1  0  0  0
 35 77  1  0  0  0
 35 78  1  0  0  0
 36 37  1  0  0  0
 36 39  1  0  0  0
 36 79  1  0  0  0
 37 38  1  0  0  0
 37 80  1  0  0  0
 37 81  1  0  0  0
 38 82  1  0  0  0
 38 83  1  0  0  0
 40 41  1  0  0  0
 40 42  1  0  0  0
 40 43  1  0  0  0
 44 84  1  0  0  0
 44 85  1  0  0  0
M  CHG  2  16   1  33   1
M  END
> <i_epik_Tot_Q>
2

> <i_epik_Tot_abs_Q>
2

> <i_f3d_flags>
0

> <i_i_glide_confnum>
3903

> <i_i_glide_lignum>
9

> <i_i_glide_posenum>
65

> <i_i_glide_rotatable_bonds>
13

> <i_lp_mmshare_version>
63125

> <i_m_Source_File_Index>
8

> <i_m_source_file_index>
8

> <b_lp_Chiralities_Consistent>
1

> <b_m_subgroup_collapsed>
0

> <r_canvas_Affinity>
0.33

> <r_epik_Charging_Adjusted_Penalty>
0.135750179767908

> <r_epik_Ionization_Penalty>
  0.0716

> <r_epik_Ionization_Penalty_Charging>
  0.0715

> <r_epik_Ionization_Penalty_Neutral>
  0.0001

> <r_epik_State_Penalty>
  0.0642

> <r_i_docking_score>
-7.7080774889885

> <r_i_glide_ecoul>
-7.47393465042114

> <r_i_glide_eff_state_penalty>
0.0642

> <r_i_glide_einternal>
9.87878131866455

> <r_i_glide_emodel>
-77.0390148001774

> <r_i_glide_energy>
-53.8062329292297

> <r_i_glide_erotb>
0.417261226664233

> <r_i_glide_esite>
-0.0607742279988214

> <r_i_glide_evdw>
-46.3322982788086

> <r_i_glide_gscore>
-7.7722774889885

> <r_i_glide_hbond>
0

> <r_i_glide_ligand_efficiency>
-0.175183579295193

> <r_i_glide_ligand_efficiency_ln>
-1.61115634596523

> <r_i_glide_ligand_efficiency_sa>
-0.618459056761124

> <r_i_glide_lipo>
-3.46811575687034

> <r_i_glide_metal>
0

> <r_i_glide_rewards>
-1.22294361927997

> <r_i_glide_rmsd>
0.0367807022741618

> <r_lp_Energy>
50.704895

> <r_lp_tautomer_probability>
1

> <s_epik_cmdline>
J2VwaWtfcHl0aG9uJywgJy1waHQnLCAnMC4wJywgJy1waCcsICc3LjAnLCAnLXRuJywgJzgnLCAnLW1hJywgJzUwMCcsICctaW1hZScsICc8aW5maWxlLm1hZT4nLCAnLW9tYWUnLCAnPG91dGZpbGUubWFlPic=

> <s_epik_input>
W0NIMl0xW0NASF0oW09IXSlbQ0gyXVtDSDJdW0NIMl1OMVtDSDJdW0NASF0oW09IXSlbQ0gyXW4ybmMoYyhjMjMpW0NIMl1OKFMoPU8pKD1PKVtDSDNdKVtDSDJdW0NIMl0zKS1jNFtjSF1bY0hdYyhDKEYpKEYpRiljKFtjSF00KVNbQ0gyXVtDSDJdTjVbQ0gyXVtDSDJdW0NIXShGKVtDSDJdW0NIMl01

> <s_glide_core_atoms_lig>
29 28 27 40 41 42 43 26 25 24 10 11 12 8 9 7 6 5 44 2 3 4 1 13 14 23 15 16 17 18 19 20 21

> <s_glide_core_atoms_ref>
9 8 13 14 34 35 36 12 11 10 16 39 38 18 17 19 20 40 21 45 42 43 22 23 24 44 25 41 26 27 28 29 30

> <s_glide_core_constrain_type>
snapped_core_restrain

> <s_glide_core_smarts>
c1cc(C(F)(F)F)ccc1-c2nn(c(c23)CCN(C3)S(=O)(=O)C)CC(O)C[N]4CCCCC4

> <s_i_glide_gridfile>
glide-grid_1_zrqq

> <s_lp_Force_Field>
S-OPLS

> <s_lp_Variant>
CatS_84-1

> <s_m_Source_File>
glide-dock_SP_1_zrqq_gc4FEset_pv.maegz

> <s_m_Source_Path>
/gpfs/projects/drug_discovery/mergetbj/GRAILS/CatS/glide-dock_SP_1_zrqq_gc4FEset

> <s_m_entry_id>
801

> <s_m_entry_name>
CatS_FEset_compounds_D3R_GC4_answers.8

> <s_m_job_name>
glide-dock_SP_1_zrqq_gc4FEset

> <s_m_source_file>
ligprep_2.maegz

> <s_m_subgroup_title>
glide-dock_SP_1_zrqq_gc4FEset_pv

> <s_m_subgroupid>
glide-dock_SP_1_zrqq_gc4FEset_pv

$$$$
CatS_167
                    3D
 Schrodinger Suite 2023-3.
 85 89  0  0  1  0            999 V2000
  -11.0378    9.5820   -9.4762 C   0  0  0  0  0  0
   -9.5465    8.9247  -10.3290 S   0  0  0  0  0  0
   -9.3350    7.5362   -9.8926 O   0  0  0  0  0  0
   -9.6706    9.2222  -11.7660 O   0  0  0  0  0  0
   -8.2499    9.8720   -9.6785 N   0  0  1  0  0  0
   -8.0102   11.2597  -10.1589 C   0  0  0  0  0  0
   -6.4981   11.6207  -10.1316 C   0  0  0  0  0  0
   -5.8074   10.9346   -8.9788 C   0  0  0  0  0  0
   -6.3946   10.0373   -8.1371 C   0  0  0  0  0  0
   -5.3536    9.6264   -7.2540 C   0  0  0  0  0  0
   -4.1996   10.2147   -7.5654 N   0  0  0  0  0  0
   -4.4704   10.9957   -8.6385 N   0  0  0  0  0  0
   -3.3924   11.7107   -9.3066 C   0  0  0  0  0  0
   -3.1439   13.1399   -8.7801 C   0  0  2  0  0  0
   -2.6300   13.1953   -7.3202 C   0  0  0  0  0  0
   -2.4431   14.5851   -6.7905 N   0  3  0  0  0  0
   -2.0747   14.5639   -5.3370 C   0  0  0  0  0  0
   -1.9868   15.9929   -4.7651 C   0  0  0  0  0  0
   -0.9703   16.8361   -5.5496 C   0  0  0  0  0  0
   -1.3896   16.8543   -7.0301 C   0  0  0  0  0  0
   -1.4943   15.4245   -7.6032 C   0  0  0  0  0  0
   -4.3170   13.9153   -8.9281 O   0  0  0  0  0  0
   -5.4425    8.6714   -6.1453 C   0  0  0  0  0  0
   -4.4145    7.7429   -5.8909 C   0  0  0  0  0  0
   -4.5650    6.7727   -4.8867 C   0  0  0  0  0  0
   -5.7365    6.7106   -4.1036 C   0  0  0  0  0  0
   -6.7437    7.6858   -4.3143 C   0  0  0  0  0  0
   -6.5959    8.6368   -5.3370 C   0  0  0  0  0  0
   -8.2040    7.7424   -3.3220 S   0  0  0  0  0  0
   -7.9291    9.1231   -2.1785 C   0  0  0  0  0  0
   -9.1595   10.0409   -2.0854 C   0  0  0  0  0  0
   -8.9469   11.1601   -1.1648 N   0  0  0  0  0  0
  -10.2478   11.7192   -0.7839 C   0  0  0  0  0  0
  -10.0695   12.8348    0.2595 C   0  0  0  0  0  0
   -9.1701   13.9566   -0.2861 C   0  0  0  0  0  0
   -7.8526   13.3461   -0.7961 C   0  0  0  0  0  0
   -8.1166   12.2002   -1.7880 C   0  0  0  0  0  0
   -8.9071   14.8323    0.6881 F   0  0  0  0  0  0
   -9.7941   14.6010   -1.2831 F   0  0  0  0  0  0
   -5.9166    5.5824   -3.0954 C   0  0  0  0  0  0
   -4.8879    4.7362   -3.1141 F   0  0  0  0  0  0
   -6.0432    6.0570   -1.8575 F   0  0  0  0  0  0
   -7.0005    4.8796   -3.4136 F   0  0  0  0  0  0
   -7.8308    9.6283   -8.2795 C   0  0  0  0  0  0
  -10.8749    9.5727   -8.4017 H   0  0  0  0  0  0
  -11.2285   10.6003   -9.8081 H   0  0  0  0  0  0
  -11.8993    8.9555   -9.7129 H   0  0  0  0  0  0
   -8.5683   11.9412   -9.5161 H   0  0  0  0  0  0
   -8.4086   11.3888  -11.1657 H   0  0  0  0  0  0
   -6.3805   12.7038  -10.0718 H   0  0  0  0  0  0
   -6.0325   11.2988  -11.0686 H   0  0  0  0  0  0
   -3.6267   11.7490  -10.3702 H   0  0  0  0  0  0
   -2.4809   11.1176   -9.2208 H   0  0  0  0  0  0
   -2.4051   13.5878   -9.4409 H   0  0  0  0  0  0
   -1.6933   12.6360   -7.2351 H   0  0  0  0  0  0
   -3.3489   12.6785   -6.6827 H   0  0  0  0  0  0
   -1.1233   14.0475   -5.1910 H   0  0  0  0  0  0
   -2.8225   13.9963   -4.7703 H   0  0  0  0  0  0
   -1.7106   15.9658   -3.7118 H   0  0  0  0  0  0
   -2.9676   16.4704   -4.8147 H   0  0  0  0  0  0
   -0.9177   17.8561   -5.1438 H   0  0  0  0  0  0
    0.0327   16.4084   -5.4433 H   0  0  0  0  0  0
   -2.3566   17.3541   -7.1239 H   0  0  0  0  0  0
   -0.6790   17.4403   -7.6097 H   0  0  0  0  0  0
   -0.5038   14.9618   -7.6285 H   0  0  0  0  0  0
   -1.8285   15.5047   -8.6430 H   0  0  0  0  0  0
   -4.1085   14.8324   -8.8594 H   0  0  0  0  0  0
   -3.5166    7.7580   -6.4870 H   0  0  0  0  0  0
   -3.7683    6.0619   -4.7340 H   0  0  0  0  0  0
   -7.3859    9.3541   -5.5008 H   0  0  0  0  0  0
   -7.6703    8.7185   -1.1984 H   0  0  0  0  0  0
   -7.0629    9.6797   -2.5249 H   0  0  0  0  0  0
   -9.4446   10.4114   -3.0715 H   0  0  0  0  0  0
   -9.9927    9.4351   -1.7304 H   0  0  0  0  0  0
  -10.7688   12.1026   -1.6638 H   0  0  0  0  0  0
  -10.8762   10.9368   -0.3599 H   0  0  0  0  0  0
  -11.0382   13.2416    0.5394 H   0  0  0  0  0  0
   -9.6377   12.4176    1.1679 H   0  0  0  0  0  0
   -7.2712   12.9733    0.0443 H   0  0  0  0  0  0
   -7.2517   14.1178   -1.2696 H   0  0  0  0  0  0
   -7.1629   11.7859   -2.1065 H   0  0  0  0  0  0
   -8.6110   12.5855   -2.6838 H   0  0  0  0  0  0
   -7.9815    8.5766   -8.0298 H   0  0  0  0  0  0
   -8.4818   10.2005   -7.6123 H   0  0  0  0  0  0
   -3.3439   15.0501   -6.8289 H   0  0  0  0  0  0
  1  2  1  0  0  0
  1 45  1  0  0  0
  1 46  1  0  0  0
  1 47  1  0  0  0
  2  3  2  0  0  0
  2  4  2  0  0  0
  2  5  1  0  0  0
  5 44  1  0  0  0
  5  6  1  0  0  0
  6  7  1  0  0  0
  6 48  1  0  0  0
  6 49  1  0  0  0
  7  8  1  0  0  0
  7 50  1  0  0  0
  7 51  1  0  0  0
  8 12  1  0  0  0
  8  9  2  0  0  0
  9 10  1  0  0  0
  9 44  1  0  0  0
 10 11  2  0  0  0
 10 23  1  0  0  0
 11 12  1  0  0  0
 12 13  1  0  0  0
 13 14  1  0  0  0
 13 52  1  0  0  0
 13 53  1  0  0  0
 14 15  1  0  0  0
 14 22  1  0  0  0
 14 54  1  0  0  0
 15 16  1  0  0  0
 15 55  1  0  0  0
 15 56  1  0  0  0
 16 21  1  0  0  0
 16 17  1  0  0  0
 16 85  1  0  0  0
 17 18  1  0  0  0
 17 57  1  0  0  0
 17 58  1  0  0  0
 18 19  1  0  0  0
 18 59  1  0  0  0
 18 60  1  0  0  0
 19 20  1  0  0  0
 19 61  1  0  0  0
 19 62  1  0  0  0
 20 21  1  0  0  0
 20 63  1  0  0  0
 20 64  1  0  0  0
 21 65  1  0  0  0
 21 66  1  0  0  0
 22 67  1  0  0  0
 23 28  1  0  0  0
 23 24  2  0  0  0
 24 25  1  0  0  0
 24 68  1  0  0  0
 25 26  2  0  0  0
 25 69  1  0  0  0
 26 27  1  0  0  0
 26 40  1  0  0  0
 27 28  2  0  0  0
 27 29  1  0  0  0
 28 70  1  0  0  0
 29 30  1  0  0  0
 30 31  1  0  0  0
 30 71  1  0  0  0
 30 72  1  0  0  0
 31 32  1  0  0  0
 31 73  1  0  0  0
 31 74  1  0  0  0
 32 37  1  0  0  0
 32 33  1  0  0  0
 33 34  1  0  0  0
 33 75  1  0  0  0
 33 76  1  0  0  0
 34 35  1  0  0  0
 34 77  1  0  0  0
 34 78  1  0  0  0
 35 36  1  0  0  0
 35 38  1  0  0  0
 35 39  1  0  0  0
 36 37  1  0  0  0
 36 79  1  0  0  0
 36 80  1  0  0  0
 37 81  1  0  0  0
 37 82  1  0  0  0
 40 41  1  0  0  0
 40 42  1  0  0  0
 40 43  1  0  0  0
 44 83  1  0  0  0
 44 84  1  0  0  0
M  CHG  1  16   1
M  END
> <i_epik_Tot_Q>
1

> <i_epik_Tot_abs_Q>
1

> <i_f3d_flags>
0

> <i_i_glide_confnum>
2627

> <i_i_glide_lignum>
26

> <i_i_glide_posenum>
49

> <i_i_glide_rotatable_bonds>
12

> <i_lp_mmshare_version>
63125

> <i_m_Source_File_Index>
24

> <i_m_source_file_index>
24

> <b_lp_Chiralities_Consistent>
1

> <b_m_subgroup_collapsed>
0

> <r_canvas_Affinity>
0.13

> <r_epik_Charging_Adjusted_Penalty>
0.331876553446479

> <r_epik_Ionization_Penalty>
  0.3320

> <r_epik_Ionization_Penalty_Charging>
  0.0067

> <r_epik_Ionization_Penalty_Neutral>
  0.3253

> <r_epik_State_Penalty>
  0.3252

> <r_i_docking_score>
-7.66355636531762

> <r_i_glide_ecoul>
-7.22387504577637

> <r_i_glide_eff_state_penalty>
0.3252

> <r_i_glide_einternal>
3.53075742721558

> <r_i_glide_emodel>
-80.921373998782

> <r_i_glide_energy>
-54.525110244751

> <r_i_glide_erotb>
0.367251636230442

> <r_i_glide_esite>
-0.0610509550818794

> <r_i_glide_evdw>
-47.3012351989746

> <r_i_glide_gscore>
-7.98875636531762

> <r_i_glide_hbond>
0

> <r_i_glide_ligand_efficiency>
-0.1741717355754

> <r_i_glide_ligand_efficiency_ln>
-1.60185045989516

> <r_i_glide_ligand_efficiency_sa>
-0.61488689597385

> <r_i_glide_lipo>
-3.52848190990794

> <r_i_glide_metal>
0

> <r_i_glide_rewards>
-1.31783211974305

> <r_i_glide_rmsd>
0.0365383644752577

> <r_lp_Energy>
52.478389

> <r_lp_tautomer_probability>
1

> <s_epik_cmdline>
J2VwaWtfcHl0aG9uJywgJy1waHQnLCAnMC4wJywgJy1waCcsICc3LjAnLCAnLXRuJywgJzgnLCAnLW1hJywgJzUwMCcsICctaW1hZScsICc8aW5maWxlLm1hZT4nLCAnLW9tYWUnLCAnPG91dGZpbGUubWFlPic=

> <s_epik_input>
W0NIMl0xW0NIMl1bQ0gyXVtDSDJdW0NIMl1OMVtDSDJdW0NASF0oW09IXSlbQ0gyXW4ybmMoYyhjMjMpW0NIMl1OKFMoPU8pKD1PKVtDSDNdKVtDSDJdW0NIMl0zKS1jNFtjSF1bY0hdYyhDKEYpKEYpRiljKFtjSF00KVNbQ0gyXVtDSDJdTihbQ0gyXVtDSDJdNSlbQ0gyXVtDSDJdQzUoRilG

> <s_glide_core_atoms_lig>
28 27 26 40 41 42 43 25 24 23 10 11 12 8 9 7 6 5 44 2 3 4 1 13 14 22 15 16 17 18 19 20 21

> <s_glide_core_atoms_ref>
9 8 13 14 34 35 36 12 11 10 16 39 38 18 17 19 20 40 21 45 42 43 22 23 24 44 25 41 26 27 28 29 30

> <s_glide_core_constrain_type>
snapped_core_restrain

> <s_glide_core_smarts>
c1cc(C(F)(F)F)ccc1-c2nn(c(c23)CCN(C3)S(=O)(=O)C)CC(O)C[N]4CCCCC4

> <s_i_glide_gridfile>
glide-grid_1_zrqq

> <s_lp_Force_Field>
S-OPLS

> <s_lp_Variant>
CatS_167-1

> <s_m_Source_File>
glide-dock_SP_1_zrqq_gc4FEset_pv.maegz

> <s_m_Source_Path>
/gpfs/projects/drug_discovery/mergetbj/GRAILS/CatS/glide-dock_SP_1_zrqq_gc4FEset

> <s_m_entry_id>
802

> <s_m_entry_name>
CatS_FEset_compounds_D3R_GC4_answers.24

> <s_m_job_name>
glide-dock_SP_1_zrqq_gc4FEset

> <s_m_source_file>
ligprep_2.maegz

> <s_m_subgroup_title>
glide-dock_SP_1_zrqq_gc4FEset_pv

> <s_m_subgroupid>
glide-dock_SP_1_zrqq_gc4FEset_pv

$$$$
CatS_127
                    3D
 Schrodinger Suite 2023-3.
 88 92  0  0  1  0            999 V2000
   -8.9916    7.9758  -14.0885 C   0  0  0  0  0  0
   -8.7753    8.0082  -12.6798 O   0  0  0  0  0  0
   -8.9010    9.1756  -12.0185 C   0  0  0  0  0  0
   -9.1227   10.2619  -12.5760 O   0  0  0  0  0  0
   -8.8707    8.9411  -10.4805 C   0  0  0  0  0  0
   -9.3295    7.8814  -10.0192 O   0  0  0  0  0  0
   -8.2660    9.8958   -9.7126 N   0  0  0  0  0  0
   -7.9796   11.2958  -10.1524 C   0  0  0  0  0  0
   -6.4814   11.6231  -10.1613 C   0  0  0  0  0  0
   -5.8064   10.9357   -8.9983 C   0  0  0  0  0  0
   -6.3988   10.0399   -8.1592 C   0  0  0  0  0  0
   -5.3709    9.6320   -7.2665 C   0  0  0  0  0  0
   -4.2181   10.2166   -7.5723 N   0  0  0  0  0  0
   -4.4628   10.9944   -8.6495 N   0  0  0  0  0  0
   -3.3749   11.7010   -9.3068 C   0  0  0  0  0  0
   -3.1366   13.1303   -8.7912 C   0  0  2  0  0  0
   -2.6130   13.1886   -7.3329 C   0  0  0  0  0  0
   -2.4306   14.5854   -6.8023 N   0  3  0  0  0  0
   -1.4682   15.4222   -7.6100 C   0  0  0  0  0  0
   -1.3642   16.8552   -7.0372 C   0  0  0  0  0  0
   -0.9763   16.8507   -5.5470 C   0  0  0  0  0  0
   -1.9883   15.9909   -4.7671 C   0  0  0  0  0  0
   -2.0762   14.5600   -5.3452 C   0  0  0  0  0  0
   -4.3185   13.8933   -8.9231 O   0  0  0  0  0  0
   -5.4704    8.6679   -6.1599 C   0  0  0  0  0  0
   -4.4354    7.7478   -5.9058 C   0  0  0  0  0  0
   -4.5777    6.7765   -4.9015 C   0  0  0  0  0  0
   -5.7493    6.7120   -4.1173 C   0  0  0  0  0  0
   -6.7685    7.6735   -4.3271 C   0  0  0  0  0  0
   -6.6263    8.6332   -5.3456 C   0  0  0  0  0  0
   -8.2507    7.6454   -3.3388 S   0  0  0  0  0  0
   -8.9030    9.3279   -3.1728 C   0  0  0  0  0  0
   -8.0508   10.1724   -2.2096 C   0  0  0  0  0  0
   -8.5514   11.5565   -2.0276 N   0  3  1  0  0  0
   -9.8984   11.5987   -1.4048 C   0  0  0  0  0  0
  -10.3998   13.0462   -1.2837 C   0  0  0  0  0  0
   -9.4054   13.9332   -0.5132 C   0  0  2  0  0  0
   -8.0063   13.8133   -1.1315 C   0  0  0  0  0  0
   -7.5746   12.3522   -1.2523 C   0  0  0  0  0  0
   -9.3693   13.5642    0.7789 F   0  0  0  0  0  0
   -5.9213    5.5805   -3.0994 C   0  0  0  0  0  0
   -4.8968    4.7363   -3.1178 F   0  0  0  0  0  0
   -6.0593    6.0667   -1.8739 F   0  0  0  0  0  0
   -7.0053    4.8670   -3.4312 F   0  0  0  0  0  0
   -7.8496    9.6226   -8.3112 C   0  0  0  0  0  0
   -9.2705    6.9572  -14.3508 H   0  0  0  0  0  0
   -8.0912    8.2323  -14.6484 H   0  0  0  0  0  0
   -9.8061    8.6352  -14.4036 H   0  0  0  0  0  0
   -8.4537   11.6356  -11.0460 H   0  0  0  0  0  0
   -8.4488   11.9127   -9.3879 H   0  0  0  0  0  0
   -6.0640   11.2303  -11.0887 H   0  0  0  0  0  0
   -6.3067   12.6831  -10.1846 H   0  0  0  0  0  0
   -2.4636   11.1066   -9.2040 H   0  0  0  0  0  0
   -3.5847   11.7250  -10.3816 H   0  0  0  0  0  0
   -2.4050   13.5943   -9.4566 H   0  0  0  0  0  0
   -3.2996   12.6526   -6.6800 H   0  0  0  0  0  0
   -1.6624   12.6540   -7.2562 H   0  0  0  0  0  0
   -0.4678   14.9589   -7.6011 H   0  0  0  0  0  0
   -1.7598   15.5052   -8.6594 H   0  0  0  0  0  0
   -0.6309   17.4267   -7.6083 H   0  0  0  0  0  0
   -2.3243   17.3613   -7.1679 H   0  0  0  0  0  0
   -0.9690   17.8736   -5.1613 H   0  0  0  0  0  0
    0.0398   16.4740   -5.4208 H   0  0  0  0  0  0
   -2.9759   16.4526   -4.8035 H   0  0  0  0  0  0
   -1.7060   15.9425   -3.7166 H   0  0  0  0  0  0
   -2.8256   13.9952   -4.7849 H   0  0  0  0  0  0
   -1.1214   14.0394   -5.1960 H   0  0  0  0  0  0
   -5.0229   13.4341   -8.4974 H   0  0  0  0  0  0
   -3.5391    7.7698   -6.5068 H   0  0  0  0  0  0
   -3.7797    6.0695   -4.7563 H   0  0  0  0  0  0
   -7.4058    9.3542   -5.5142 H   0  0  0  0  0  0
   -8.9812    9.7962   -4.1536 H   0  0  0  0  0  0
   -9.9197    9.2359   -2.7889 H   0  0  0  0  0  0
   -7.9992    9.6850   -1.2337 H   0  0  0  0  0  0
   -7.0307   10.2176   -2.5996 H   0  0  0  0  0  0
  -10.6041   11.0461   -2.0097 H   0  0  0  0  0  0
   -9.8624   11.1317   -0.4254 H   0  0  0  0  0  0
  -10.5571   13.4702   -2.2839 H   0  0  0  0  0  0
  -11.3731   13.0667   -0.7908 H   0  0  0  0  0  0
   -9.7413   14.9786   -0.5237 H   0  0  0  0  0  0
   -7.2808   14.3380   -0.5182 H   0  0  0  0  0  0
   -7.9961   14.2829   -2.1139 H   0  0  0  0  0  0
   -7.4983   11.9479   -0.2440 H   0  0  0  0  0  0
   -6.5919   12.3007   -1.7067 H   0  0  0  0  0  0
   -8.4956   10.1839   -7.6454 H   0  0  0  0  0  0
   -7.9814    8.5664   -8.0455 H   0  0  0  0  0  0
   -3.3421   15.0268   -6.8847 H   0  0  0  0  0  0
   -8.6203   11.9865   -2.9351 H   0  0  0  0  0  0
  1  2  1  0  0  0
  1 46  1  0  0  0
  1 47  1  0  0  0
  1 48  1  0  0  0
  2  3  1  0  0  0
  3  4  2  0  0  0
  3  5  1  0  0  0
  5  6  2  0  0  0
  5  7  1  0  0  0
  7 45  1  0  0  0
  7  8  1  0  0  0
  8  9  1  0  0  0
  8 49  1  0  0  0
  8 50  1  0  0  0
  9 10  1  0  0  0
  9 51  1  0  0  0
  9 52  1  0  0  0
 10 14  1  0  0  0
 10 11  2  0  0  0
 11 12  1  0  0  0
 11 45  1  0  0  0
 12 13  2  0  0  0
 12 25  1  0  0  0
 13 14  1  0  0  0
 14 15  1  0  0  0
 15 16  1  0  0  0
 15 53  1  0  0  0
 15 54  1  0  0  0
 16 17  1  0  0  0
 16 24  1  0  0  0
 16 55  1  0  0  0
 17 18  1  0  0  0
 17 56  1  0  0  0
 17 57  1  0  0  0
 18 23  1  0  0  0
 18 19  1  0  0  0
 18 87  1  0  0  0
 19 20  1  0  0  0
 19 58  1  0  0  0
 19 59  1  0  0  0
 20 21  1  0  0  0
 20 60  1  0  0  0
 20 61  1  0  0  0
 21 22  1  0  0  0
 21 62  1  0  0  0
 21 63  1  0  0  0
 22 23  1  0  0  0
 22 64  1  0  0  0
 22 65  1  0  0  0
 23 66  1  0  0  0
 23 67  1  0  0  0
 24 68  1  0  0  0
 25 30  1  0  0  0
 25 26  2  0  0  0
 26 27  1  0  0  0
 26 69  1  0  0  0
 27 28  2  0  0  0
 27 70  1  0  0  0
 28 29  1  0  0  0
 28 41  1  0  0  0
 29 30  2  0  0  0
 29 31  1  0  0  0
 30 71  1  0  0  0
 31 32  1  0  0  0
 32 33  1  0  0  0
 32 72  1  0  0  0
 32 73  1  0  0  0
 33 34  1  0  0  0
 33 74  1  0  0  0
 33 75  1  0  0  0
 34 39  1  0  0  0
 34 35  1  0  0  0
 34 88  1  0  0  0
 35 36  1  0  0  0
 35 76  1  0  0  0
 35 77  1  0  0  0
 36 37  1  0  0  0
 36 78  1  0  0  0
 36 79  1  0  0  0
 37 38  1  0  0  0
 37 40  1  0  0  0
 37 80  1  0  0  0
 38 39  1  0  0  0
 38 81  1  0  0  0
 38 82  1  0  0  0
 39 83  1  0  0  0
 39 84  1  0  0  0
 41 42  1  0  0  0
 41 43  1  0  0  0
 41 44  1  0  0  0
 45 85  1  0  0  0
 45 86  1  0  0  0
M  CHG  2  18   1  34   1
M  END
> <i_epik_Tot_Q>
2

> <i_epik_Tot_abs_Q>
2

> <i_f3d_flags>
0

> <i_i_glide_confnum>
1462

> <i_i_glide_lignum>
12

> <i_i_glide_posenum>
254

> <i_i_glide_rotatable_bonds>
14

> <i_lp_mmshare_version>
63125

> <i_m_Source_File_Index>
10

> <i_m_source_file_index>
10

> <b_lp_Chiralities_Consistent>
1

> <b_m_subgroup_collapsed>
0

> <r_canvas_Affinity>
0.075

> <r_epik_Charging_Adjusted_Penalty>
0.135119144620326

> <r_epik_Ionization_Penalty>
  0.0709

> <r_epik_Ionization_Penalty_Charging>
  0.0709

> <r_epik_Ionization_Penalty_Neutral>
  0.0000

> <r_epik_State_Penalty>
  0.0642

> <r_i_docking_score>
-7.66202018243178

> <r_i_glide_ecoul>
-4.10489988327026

> <r_i_glide_eff_state_penalty>
0.0642

> <r_i_glide_einternal>
3.58082389831543

> <r_i_glide_emodel>
-75.5676110131206

> <r_i_glide_energy>
-52.2902178764343

> <r_i_glide_erotb>
0.434756892666883

> <r_i_glide_esite>
-0.00312904058470341

> <r_i_glide_evdw>
-48.1853179931641

> <r_i_glide_gscore>
-7.72622018243178

> <r_i_glide_hbond>
-0.0359477306691447

> <r_i_glide_ligand_efficiency>
-0.170267115165151

> <r_i_glide_ligand_efficiency_ln>
-1.59404164505794

> <r_i_glide_ligand_efficiency_sa>
-0.605621961137297

> <r_i_glide_lipo>
-3.4532933143423

> <r_i_glide_metal>
0

> <r_i_glide_rewards>
-1.64360610735377

> <r_i_glide_rmsd>
0.0390403867657386

> <r_lp_Energy>
59.276334

> <r_lp_tautomer_probability>
1

> <s_epik_Chemistry_Notes>
This compound has an ester and may undergo hydrolysis at high or low pH.

> <s_epik_cmdline>
J2VwaWtfcHl0aG9uJywgJy1waHQnLCAnMC4wJywgJy1waCcsICc3LjAnLCAnLXRuJywgJzgnLCAnLW1hJywgJzUwMCcsICctaW1hZScsICc8aW5maWxlLm1hZT4nLCAnLW9tYWUnLCAnPG91dGZpbGUubWFlPic=

> <s_epik_input>
W0NIMl0xW0NIMl1bQ0gyXVtDSDJdW0NIMl1OMVtDSDJdW0NASF0oW09IXSlbQ0gyXW4ybmMoYyhjMjMpW0NIMl1OKFtDSDJdW0NIMl0zKUMoPU8pQyg9TylPW0NIM10pLWM0W2NIXVtjSF1jKEMoRikoRilGKWMoW2NIXTQpU1tDSDJdW0NIMl1ONVtDSDJdW0NIMl1bQ0hdKEYpW0NIMl1bQ0gyXTU=

> <s_glide_core_atoms_lig>
30 29 28 41 42 43 44 27 26 25 12 13 14 10 11 9 8 7 45 15 16 24 17 18 23 22 21 20 19

> <s_glide_core_atoms_ref>
9 8 13 14 34 35 36 12 11 10 16 39 38 18 17 19 20 40 21 23 24 44 25 41 26 27 28 29 30

> <s_glide_core_constrain_type>
snapped_core_restrain

> <s_glide_core_smarts>
c1cc(C(F)(F)F)ccc1-c2nn(c(c23)CCNC3)CC(O)C[N]4CCCCC4

> <s_i_glide_gridfile>
glide-grid_1_zrqq

> <s_lp_Force_Field>
S-OPLS

> <s_lp_Variant>
CatS_127-1

> <s_m_Source_File>
glide-dock_SP_1_zrqq_gc4FEset_pv.maegz

> <s_m_Source_Path>
/gpfs/projects/drug_discovery/mergetbj/GRAILS/CatS/glide-dock_SP_1_zrqq_gc4FEset

> <s_m_entry_id>
803

> <s_m_entry_name>
CatS_FEset_compounds_D3R_GC4_answers.10

> <s_m_job_name>
glide-dock_SP_1_zrqq_gc4FEset

> <s_m_source_file>
ligprep_2.maegz

> <s_m_subgroup_title>
glide-dock_SP_1_zrqq_gc4FEset_pv

> <s_m_subgroupid>
glide-dock_SP_1_zrqq_gc4FEset_pv

$$$$
CatS_186
                    3D
 Schrodinger Suite 2023-3.
 93 97  0  0  1  0            999 V2000
   -8.3956   13.7145   -0.0940 C   0  0  0  0  0  0
   -8.4459   12.9585   -1.4238 C   0  0  2  0  0  0
   -9.8827   12.8826   -1.9657 C   0  0  0  0  0  0
   -9.9336   12.0831   -3.2776 C   0  0  0  0  0  0
   -9.3687   10.7091   -3.1080 N   0  3  2  0  0  0
   -7.9670   10.7686   -2.5974 C   0  0  0  0  0  0
   -7.8977   11.5386   -1.2664 C   0  0  0  0  0  0
   -9.4914    9.9675   -4.3810 C   0  0  0  0  0  0
   -9.6029    8.4271   -4.2520 C   0  0  0  0  0  0
   -8.2659    7.5377   -3.4005 S   0  0  0  0  0  0
   -6.7673    7.6271   -4.3423 C   0  0  0  0  0  0
   -6.5922    8.5681   -5.3834 C   0  0  0  0  0  0
   -5.4292    8.6357   -6.1679 C   0  0  0  0  0  0
   -4.3898    7.7404   -5.8671 C   0  0  0  0  0  0
   -4.5427    6.7650   -4.8598 C   0  0  0  0  0  0
   -5.7328    6.6817   -4.0991 C   0  0  0  0  0  0
   -5.9113    5.5660   -3.0775 C   0  0  0  0  0  0
   -4.8768    4.7317   -3.0692 F   0  0  0  0  0  0
   -6.0670    6.0629   -1.8532 F   0  0  0  0  0  0
   -6.9806    4.8450   -3.3881 F   0  0  0  0  0  0
   -5.3402    9.6031   -7.2770 C   0  0  0  0  0  0
   -6.3790   10.0381   -8.1466 C   0  0  0  0  0  0
   -5.7961   10.9326   -8.9910 C   0  0  0  0  0  0
   -4.4604   11.0013   -8.6449 N   0  0  0  0  0  0
   -4.1954   10.2067   -7.5863 N   0  0  0  0  0  0
   -3.3836   11.7130   -9.3166 C   0  0  0  0  0  0
   -3.1334   13.1470   -8.7919 C   0  0  2  0  0  0
   -2.6240   13.1929   -7.3295 C   0  0  0  0  0  0
   -2.4354   14.5779   -6.7989 N   0  3  1  0  0  0
   -2.0969   14.5622   -5.3356 C   0  0  0  0  0  0
   -1.9752   15.9885   -4.7666 C   0  0  0  0  0  0
   -0.9496   16.8226   -5.5365 C   0  0  2  0  0  0
   -1.3743   16.8510   -7.0205 C   0  0  0  0  0  0
   -1.5005   15.4277   -7.6033 C   0  0  0  0  0  0
    0.4999   16.3188   -5.3570 C   0  0  0  0  0  0
   -0.9889   18.1541   -5.0432 O   0  0  0  0  0  0
   -4.2982   13.9369   -8.9166 O   0  0  0  0  0  0
   -6.4911   11.6138  -10.1398 C   0  0  0  0  0  0
   -7.9996   11.2774  -10.1349 C   0  0  0  0  0  0
   -8.2634    9.8929   -9.6687 N   0  0  1  0  0  0
   -7.8276    9.6251   -8.2846 C   0  0  0  0  0  0
   -9.5472    8.9531  -10.3487 S   0  0  0  0  0  0
   -9.3287    7.5575   -9.9420 O   0  0  0  0  0  0
   -9.6611    9.2895  -11.7720 O   0  0  0  0  0  0
  -11.0247    9.5970   -9.4889 C   0  0  0  0  0  0
   -9.0459   13.2397    0.6482 H   0  0  0  0  0  0
   -7.3791   13.7324    0.3126 H   0  0  0  0  0  0
   -8.7214   14.7516   -0.2191 H   0  0  0  0  0  0
   -7.8113   13.4940   -2.1365 H   0  0  0  0  0  0
  -10.2729   13.8789   -2.1526 H   0  0  0  0  0  0
  -10.5266   12.4020   -1.2387 H   0  0  0  0  0  0
   -9.3632   12.5996   -4.0705 H   0  0  0  0  0  0
  -10.9713   12.0125   -3.6169 H   0  0  0  0  0  0
   -7.5750    9.7807   -2.3883 H   0  0  0  0  0  0
   -7.3069   11.1981   -3.3477 H   0  0  0  0  0  0
   -8.4695   11.0006   -0.5117 H   0  0  0  0  0  0
   -6.8683   11.5634   -0.9030 H   0  0  0  0  0  0
   -8.7541   10.3461   -5.0537 H   0  0  0  0  0  0
  -10.4085   10.2733   -4.8917 H   0  0  0  0  0  0
   -9.7121    7.9767   -5.2429 H   0  0  0  0  0  0
  -10.5221    8.1985   -3.7131 H   0  0  0  0  0  0
   -7.3711    9.2364   -5.6673 H   0  0  0  0  0  0
   -3.4619    7.7734   -6.4377 H   0  0  0  0  0  0
   -3.7272    6.0749   -4.6776 H   0  0  0  0  0  0
   -3.6213   11.7554  -10.3873 H   0  0  0  0  0  0
   -2.4666   11.1219   -9.2397 H   0  0  0  0  0  0
   -2.3818   13.5851   -9.4483 H   0  0  0  0  0  0
   -1.6905   12.6343   -7.2450 H   0  0  0  0  0  0
   -3.3469   12.6778   -6.6892 H   0  0  0  0  0  0
   -2.8662   14.0104   -4.7843 H   0  0  0  0  0  0
   -1.1632   14.0149   -5.1835 H   0  0  0  0  0  0
   -1.6980   15.9386   -3.7069 H   0  0  0  0  0  0
   -2.9518   16.4734   -4.7921 H   0  0  0  0  0  0
   -2.3326   17.3484   -7.1143 H   0  0  0  0  0  0
   -0.6730   17.4274   -7.6037 H   0  0  0  0  0  0
   -1.8323   15.5220   -8.6309 H   0  0  0  0  0  0
   -0.5191   14.9506   -7.6376 H   0  0  0  0  0  0
    0.6214   15.2922   -5.6988 H   0  0  0  0  0  0
    0.7896   16.3483   -4.3017 H   0  0  0  0  0  0
    1.2139   16.9276   -5.9080 H   0  0  0  0  0  0
   -0.6858   18.1418   -4.1441 H   0  0  0  0  0  0
   -4.5085   14.0277   -9.8282 H   0  0  0  0  0  0
   -6.3522   12.6892  -10.1013 H   0  0  0  0  0  0
   -6.0490   11.2711  -11.0780 H   0  0  0  0  0  0
   -8.5407   11.9669   -9.4590 H   0  0  0  0  0  0
   -8.4333   11.4406  -11.1327 H   0  0  0  0  0  0
   -7.9385    8.5728   -8.0567 H   0  0  0  0  0  0
   -8.4553   10.1675   -7.5936 H   0  0  0  0  0  0
  -11.9163    9.1047   -9.8781 H   0  0  0  0  0  0
  -10.9373    9.3903   -8.4237 H   0  0  0  0  0  0
  -11.1065   10.6724   -9.6526 H   0  0  0  0  0  0
   -9.9443   10.2382   -2.4123 H   0  0  0  0  0  0
   -3.3362   15.0076   -6.8884 H   0  0  0  0  0  0
  1  2  1  0  0  0
  1 46  1  0  0  0
  1 47  1  0  0  0
  1 48  1  0  0  0
  2  7  1  0  0  0
  2  3  1  0  0  0
  2 49  1  0  0  0
  3  4  1  0  0  0
  3 50  1  0  0  0
  3 51  1  0  0  0
  4  5  1  0  0  0
  4 52  1  0  0  0
  4 53  1  0  0  0
  5  6  1  0  0  0
  5  8  1  0  0  0
  5 92  1  0  0  0
  6  7  1  0  0  0
  6 54  1  0  0  0
  6 55  1  0  0  0
  7 56  1  0  0  0
  7 57  1  0  0  0
  8  9  1  0  0  0
  8 58  1  0  0  0
  8 59  1  0  0  0
  9 10  1  0  0  0
  9 60  1  0  0  0
  9 61  1  0  0  0
 10 11  1  0  0  0
 11 16  1  0  0  0
 11 12  2  0  0  0
 12 13  1  0  0  0
 12 62  1  0  0  0
 13 14  2  0  0  0
 13 21  1  0  0  0
 14 15  1  0  0  0
 14 63  1  0  0  0
 15 16  2  0  0  0
 15 64  1  0  0  0
 16 17  1  0  0  0
 17 18  1  0  0  0
 17 19  1  0  0  0
 17 20  1  0  0  0
 21 25  2  0  0  0
 21 22  1  0  0  0
 22 41  1  0  0  0
 22 23  2  0  0  0
 23 24  1  0  0  0
 23 38  1  0  0  0
 24 25  1  0  0  0
 24 26  1  0  0  0
 26 27  1  0  0  0
 26 65  1  0  0  0
 26 66  1  0  0  0
 27 28  1  0  0  0
 27 37  1  0  0  0
 27 67  1  0  0  0
 28 29  1  0  0  0
 28 68  1  0  0  0
 28 69  1  0  0  0
 29 34  1  0  0  0
 29 30  1  0  0  0
 29 93  1  0  0  0
 30 31  1  0  0  0
 30 70  1  0  0  0
 30 71  1  0  0  0
 31 32  1  0  0  0
 31 72  1  0  0  0
 31 73  1  0  0  0
 32 33  1  0  0  0
 32 35  1  0  0  0
 32 36  1  0  0  0
 33 34  1  0  0  0
 33 74  1  0  0  0
 33 75  1  0  0  0
 34 76  1  0  0  0
 34 77  1  0  0  0
 35 78  1  0  0  0
 35 79  1  0  0  0
 35 80  1  0  0  0
 36 81  1  0  0  0
 37 82  1  0  0  0
 38 39  1  0  0  0
 38 83  1  0  0  0
 38 84  1  0  0  0
 39 40  1  0  0  0
 39 85  1  0  0  0
 39 86  1  0  0  0
 40 41  1  0  0  0
 40 42  1  0  0  0
 41 87  1  0  0  0
 41 88  1  0  0  0
 42 43  2  0  0  0
 42 44  2  0  0  0
 42 45  1  0  0  0
 45 89  1  0  0  0
 45 90  1  0  0  0
 45 91  1  0  0  0
M  CHG  2   5   1  29   1
M  END
> <i_epik_Tot_Q>
2

> <i_epik_Tot_abs_Q>
2

> <i_f3d_flags>
0

> <i_i_glide_confnum>
124

> <i_i_glide_lignum>
36

> <i_i_glide_posenum>
199

> <i_i_glide_rotatable_bonds>
13

> <i_lp_mmshare_version>
63125

> <i_m_Source_File_Index>
34

> <i_m_source_file_index>
34

> <b_lp_Chiralities_Consistent>
1

> <b_m_subgroup_collapsed>
0

> <r_canvas_Affinity>
0.57

> <r_epik_Charging_Adjusted_Penalty>
0.0111589656975587

> <r_epik_Ionization_Penalty>
  0.0112

> <r_epik_Ionization_Penalty_Charging>
  0.0112

> <r_epik_Ionization_Penalty_Neutral>
  0.0001

> <r_epik_State_Penalty>
  0.0000

> <r_i_docking_score>
-7.63934614465653

> <r_i_glide_ecoul>
-6.21927213668823

> <r_i_glide_eff_state_penalty>
0

> <r_i_glide_einternal>
2.21718406677246

> <r_i_glide_emodel>
-78.1737143758559

> <r_i_glide_energy>
-51.7412104606628

> <r_i_glide_erotb>
0.443035976923762

> <r_i_glide_esite>
-0.056081781714333

> <r_i_glide_evdw>
-45.5219383239746

> <r_i_glide_gscore>
-7.63934614465653

> <r_i_glide_hbond>
0

> <r_i_glide_ligand_efficiency>
-0.169763247659034

> <r_i_glide_ligand_efficiency_ln>
-1.58932443476421

> <r_i_glide_ligand_efficiency_sa>
-0.603829758180714

> <r_i_glide_lipo>
-3.61429431967649

> <r_i_glide_metal>
0

> <r_i_glide_rewards>
-1.2030182834875

> <r_i_glide_rmsd>
0.0414881742302291

> <r_lp_Energy>
56.526171

> <r_lp_tautomer_probability>
1

> <s_epik_cmdline>
J2VwaWtfcHl0aG9uJywgJy1waHQnLCAnMC4wJywgJy1waCcsICc3LjAnLCAnLXRuJywgJzgnLCAnLW1hJywgJzUwMCcsICctaW1hZScsICc8aW5maWxlLm1hZT4nLCAnLW9tYWUnLCAnPG91dGZpbGUubWFlPic=

> <s_epik_input>
W0NIM11bQ0hdMVtDSDJdW0NIMl1OKFtDSDJdW0NIMl0xKVtDSDJdW0NIMl1TYzJbY0hdYyhbY0hdW2NIXWMyQyhGKShGKUYpLWMzbm4oYyhjMzQpW0NIMl1bQ0gyXU4oW0NIMl00KVMoPU8pKD1PKVtDSDNdKVtDSDJdW0NAQEhdKFtPSF0pW0NIMl1OKFtDSDJdW0NIMl01KVtDSDJdW0NIMl1DNShbQ0gzXSlbT0hd

> <s_glide_core_atoms_lig>
12 11 16 17 18 19 20 15 14 13 21 25 24 23 22 38 39 40 41 42 43 44 45 26 27 37 28 29 30 31 34 33 32 35

> <s_glide_core_atoms_ref>
9 8 13 14 34 35 36 12 11 10 16 39 38 18 17 19 20 40 21 45 42 43 22 23 24 44 25 41 26 27 30 29 28 31

> <s_glide_core_constrain_type>
snapped_core_restrain

> <s_glide_core_smarts>
c1cc(C(F)(F)F)ccc1-c2nn(c(c23)CCN(C3)S(=O)(=O)C)CC(O)C[N](CC4)CCC4C

> <s_i_glide_gridfile>
glide-grid_1_zrqq

> <s_lp_Force_Field>
S-OPLS

> <s_lp_Variant>
CatS_186-1

> <s_m_Source_File>
glide-dock_SP_1_zrqq_gc4FEset_pv.maegz

> <s_m_Source_Path>
/gpfs/projects/drug_discovery/mergetbj/GRAILS/CatS/glide-dock_SP_1_zrqq_gc4FEset

> <s_m_entry_id>
804

> <s_m_entry_name>
CatS_FEset_compounds_D3R_GC4_answers.34

> <s_m_job_name>
glide-dock_SP_1_zrqq_gc4FEset

> <s_m_source_file>
ligprep_2.maegz

> <s_m_subgroup_title>
glide-dock_SP_1_zrqq_gc4FEset_pv

> <s_m_subgroupid>
glide-dock_SP_1_zrqq_gc4FEset_pv

$$$$
CatS_139
                    3D
 Schrodinger Suite 2023-3.
 86 90  0  0  1  0            999 V2000
  -11.0351    9.5772   -9.4842 C   0  0  0  0  0  0
   -9.5378    8.9208  -10.3467 S   0  0  0  0  0  0
   -9.3233    7.5364   -9.9097 O   0  0  0  0  0  0
   -9.6628    9.2329  -11.7773 O   0  0  0  0  0  0
   -8.2480    9.8744   -9.6812 N   0  0  1  0  0  0
   -8.0083   11.2635  -10.1590 C   0  0  0  0  0  0
   -6.4931   11.6167  -10.1403 C   0  0  0  0  0  0
   -5.7991   10.9404   -8.9824 C   0  0  0  0  0  0
   -6.3784   10.0327   -8.1462 C   0  0  0  0  0  0
   -5.3408    9.6252   -7.2674 C   0  0  0  0  0  0
   -4.1952   10.2246   -7.5705 N   0  0  0  0  0  0
   -4.4674   11.0088   -8.6426 N   0  0  0  0  0  0
   -3.3857   11.7147   -9.3071 C   0  0  0  0  0  0
   -3.1323   13.1464   -8.7837 C   0  0  2  0  0  0
   -2.6271   13.1958   -7.3204 C   0  0  0  0  0  0
   -2.4384   14.5917   -6.7973 N   0  3  2  0  0  0
   -1.4795   15.4270   -7.6013 C   0  0  0  0  0  0
   -1.3737   16.8566   -7.0299 C   0  0  0  0  0  0
   -0.9716   16.8421   -5.5462 C   0  0  1  0  0  0
   -1.9896   15.9975   -4.7636 C   0  0  0  0  0  0
   -2.0870   14.5697   -5.3363 C   0  0  0  0  0  0
    0.2571   16.3287   -5.4113 F   0  0  0  0  0  0
   -4.2971   13.9283   -8.9280 O   0  0  0  0  0  0
   -5.4237    8.6620   -6.1584 C   0  0  0  0  0  0
   -4.3954    7.7471   -5.8895 C   0  0  0  0  0  0
   -4.5505    6.7792   -4.8825 C   0  0  0  0  0  0
   -5.7329    6.7175   -4.1123 C   0  0  0  0  0  0
   -6.7463    7.6839   -4.3370 C   0  0  0  0  0  0
   -6.5880    8.6270   -5.3723 C   0  0  0  0  0  0
   -8.2411    7.6980   -3.3848 S   0  0  0  0  0  0
   -8.8074    9.4226   -3.2879 C   0  0  0  0  0  0
   -8.7181    9.9741   -1.8560 C   0  0  0  0  0  0
   -9.1234   11.3988   -1.7880 N   0  3  2  0  0  0
   -8.0267   12.3061   -2.2077 C   0  0  0  0  0  0
   -8.4967   13.7709   -2.2223 C   0  0  0  0  0  0
   -9.0461   14.1856   -0.8501 C   0  0  2  0  0  0
  -10.1463   13.2068   -0.4158 C   0  0  0  0  0  0
   -9.6426   11.7582   -0.4471 C   0  0  0  0  0  0
   -9.5346   15.4289   -0.9072 F   0  0  0  0  0  0
   -5.9221    5.5888   -3.1076 C   0  0  0  0  0  0
   -4.8990    4.7369   -3.1188 F   0  0  0  0  0  0
   -6.0494    6.0662   -1.8699 F   0  0  0  0  0  0
   -7.0134    4.8952   -3.4268 F   0  0  0  0  0  0
   -7.8196    9.6212   -8.2912 C   0  0  0  0  0  0
  -10.8862    9.5206   -8.4059 H   0  0  0  0  0  0
  -11.2141   10.6108   -9.7832 H   0  0  0  0  0  0
  -11.8984    8.9661   -9.7522 H   0  0  0  0  0  0
   -8.5583   11.9454   -9.5082 H   0  0  0  0  0  0
   -8.4086   11.3999  -11.1630 H   0  0  0  0  0  0
   -6.3635   12.6973  -10.0980 H   0  0  0  0  0  0
   -6.0326   11.2840  -11.0705 H   0  0  0  0  0  0
   -3.6144   11.7567  -10.3783 H   0  0  0  0  0  0
   -2.4759   11.1196   -9.2216 H   0  0  0  0  0  0
   -2.3862   13.5932   -9.4462 H   0  0  0  0  0  0
   -1.6828   12.6565   -7.2348 H   0  0  0  0  0  0
   -3.3377   12.6702   -6.6806 H   0  0  0  0  0  0
   -1.8088   15.5003   -8.6399 H   0  0  0  0  0  0
   -0.4982   14.9489   -7.6176 H   0  0  0  0  0  0
   -2.3336   17.3627   -7.1421 H   0  0  0  0  0  0
   -0.6528   17.4311   -7.6062 H   0  0  0  0  0  0
   -0.9237   17.8612   -5.1552 H   0  0  0  0  0  0
   -1.7171   15.9650   -3.7095 H   0  0  0  0  0  0
   -2.9687   16.4773   -4.8115 H   0  0  0  0  0  0
   -2.8310   14.0039   -4.7679 H   0  0  0  0  0  0
   -1.1373   14.0530   -5.1958 H   0  0  0  0  0  0
   -5.0045   13.5149   -8.4459 H   0  0  0  0  0  0
   -3.4863    7.7632   -6.4749 H   0  0  0  0  0  0
   -3.7582    6.0661   -4.7215 H   0  0  0  0  0  0
   -7.3785    9.3191   -5.5937 H   0  0  0  0  0  0
   -8.2226   10.0475   -3.9584 H   0  0  0  0  0  0
   -9.8361    9.4688   -3.6530 H   0  0  0  0  0  0
   -9.3762    9.3732   -1.2276 H   0  0  0  0  0  0
   -7.7079    9.8509   -1.4554 H   0  0  0  0  0  0
   -7.1735   12.1961   -1.5305 H   0  0  0  0  0  0
   -7.6703   12.0356   -3.1989 H   0  0  0  0  0  0
   -7.6685   14.4239   -2.5022 H   0  0  0  0  0  0
   -9.2711   13.9009   -2.9804 H   0  0  0  0  0  0
   -8.2376   14.1937   -0.1135 H   0  0  0  0  0  0
  -11.0130   13.3098   -1.0695 H   0  0  0  0  0  0
  -10.4905   13.4565    0.5895 H   0  0  0  0  0  0
  -10.4556   11.0892   -0.1665 H   0  0  0  0  0  0
   -8.8536   11.6261    0.2935 H   0  0  0  0  0  0
   -7.9582    8.5676   -8.0537 H   0  0  0  0  0  0
   -8.4737   10.1781   -7.6175 H   0  0  0  0  0  0
   -3.3528   15.0354   -6.8749 H   0  0  0  0  0  0
   -9.8891   11.5279   -2.4347 H   0  0  0  0  0  0
  1  2  1  0  0  0
  1 45  1  0  0  0
  1 46  1  0  0  0
  1 47  1  0  0  0
  2  3  2  0  0  0
  2  4  2  0  0  0
  2  5  1  0  0  0
  5 44  1  0  0  0
  5  6  1  0  0  0
  6  7  1  0  0  0
  6 48  1  0  0  0
  6 49  1  0  0  0
  7  8  1  0  0  0
  7 50  1  0  0  0
  7 51  1  0  0  0
  8 12  1  0  0  0
  8  9  2  0  0  0
  9 10  1  0  0  0
  9 44  1  0  0  0
 10 11  2  0  0  0
 10 24  1  0  0  0
 11 12  1  0  0  0
 12 13  1  0  0  0
 13 14  1  0  0  0
 13 52  1  0  0  0
 13 53  1  0  0  0
 14 15  1  0  0  0
 14 23  1  0  0  0
 14 54  1  0  0  0
 15 16  1  0  0  0
 15 55  1  0  0  0
 15 56  1  0  0  0
 16 21  1  0  0  0
 16 17  1  0  0  0
 16 85  1  0  0  0
 17 18  1  0  0  0
 17 57  1  0  0  0
 17 58  1  0  0  0
 18 19  1  0  0  0
 18 59  1  0  0  0
 18 60  1  0  0  0
 19 20  1  0  0  0
 19 22  1  0  0  0
 19 61  1  0  0  0
 20 21  1  0  0  0
 20 62  1  0  0  0
 20 63  1  0  0  0
 21 64  1  0  0  0
 21 65  1  0  0  0
 23 66  1  0  0  0
 24 29  1  0  0  0
 24 25  2  0  0  0
 25 26  1  0  0  0
 25 67  1  0  0  0
 26 27  2  0  0  0
 26 68  1  0  0  0
 27 28  1  0  0  0
 27 40  1  0  0  0
 28 29  2  0  0  0
 28 30  1  0  0  0
 29 69  1  0  0  0
 30 31  1  0  0  0
 31 32  1  0  0  0
 31 70  1  0  0  0
 31 71  1  0  0  0
 32 33  1  0  0  0
 32 72  1  0  0  0
 32 73  1  0  0  0
 33 38  1  0  0  0
 33 34  1  0  0  0
 33 86  1  0  0  0
 34 35  1  0  0  0
 34 74  1  0  0  0
 34 75  1  0  0  0
 35 36  1  0  0  0
 35 76  1  0  0  0
 35 77  1  0  0  0
 36 37  1  0  0  0
 36 39  1  0  0  0
 36 78  1  0  0  0
 37 38  1  0  0  0
 37 79  1  0  0  0
 37 80  1  0  0  0
 38 81  1  0  0  0
 38 82  1  0  0  0
 40 41  1  0  0  0
 40 42  1  0  0  0
 40 43  1  0  0  0
 44 83  1  0  0  0
 44 84  1  0  0  0
M  CHG  2  16   1  33   1
M  END
> <i_epik_Tot_Q>
2

> <i_epik_Tot_abs_Q>
2

> <i_f3d_flags>
0

> <i_i_glide_confnum>
1329

> <i_i_glide_lignum>
16

> <i_i_glide_posenum>
147

> <i_i_glide_rotatable_bonds>
12

> <i_lp_mmshare_version>
63125

> <i_m_Source_File_Index>
14

> <i_m_source_file_index>
14

> <b_lp_Chiralities_Consistent>
1

> <b_m_subgroup_collapsed>
0

> <r_canvas_Affinity>
0.17

> <r_epik_Charging_Adjusted_Penalty>
0.10154016706474

> <r_epik_Ionization_Penalty>
  0.1016

> <r_epik_Ionization_Penalty_Charging>
  0.1015

> <r_epik_Ionization_Penalty_Neutral>
  0.0001

> <r_epik_State_Penalty>
  0.0000

> <r_i_docking_score>
-7.60542618898463

> <r_i_glide_ecoul>
-7.27425003051758

> <r_i_glide_eff_state_penalty>
0

> <r_i_glide_einternal>
4.21729469299316

> <r_i_glide_emodel>
-74.4638159606559

> <r_i_glide_energy>
-51.5702438354492

> <r_i_glide_erotb>
0.365252694247745

> <r_i_glide_esite>
-0.0764368611924474

> <r_i_glide_evdw>
-44.2959938049316

> <r_i_glide_gscore>
-7.60542618898463

> <r_i_glide_hbond>
0

> <r_i_glide_ligand_efficiency>
-0.172850595204196

> <r_i_glide_ligand_efficiency_ln>
-1.58969998493888

> <r_i_glide_ligand_efficiency_sa>
-0.61022281026952

> <r_i_glide_lipo>
-3.34284825157612

> <r_i_glide_metal>
0

> <r_i_glide_rewards>
-1.24545657563959

> <r_i_glide_rmsd>
0.0387968724621229

> <r_lp_Energy>
50.716108

> <r_lp_tautomer_probability>
1

> <s_epik_cmdline>
J2VwaWtfcHl0aG9uJywgJy1waHQnLCAnMC4wJywgJy1waCcsICc3LjAnLCAnLXRuJywgJzgnLCAnLW1hJywgJzUwMCcsICctaW1hZScsICc8aW5maWxlLm1hZT4nLCAnLW9tYWUnLCAnPG91dGZpbGUubWFlPic=

> <s_epik_input>
W0NIMl0xW0NIMl1bQ0hdKEYpW0NIMl1bQ0gyXU4xW0NIMl1bQ0BIXShbT0hdKVtDSDJdbjJuYyhjKGMyMylbQ0gyXU4oUyg9TykoPU8pW0NIM10pW0NIMl1bQ0gyXTMpLWM0W2NIXVtjSF1jKEMoRikoRilGKWMoW2NIXTQpU1tDSDJdW0NIMl1ONVtDSDJdW0NIMl1bQ0hdKEYpW0NIMl1bQ0gyXTU=

> <s_glide_core_atoms_lig>
29 28 27 40 41 42 43 26 25 24 10 11 12 8 9 7 6 5 44 2 3 4 1 13 14 23 15 16 21 20 19 18 17

> <s_glide_core_atoms_ref>
9 8 13 14 34 35 36 12 11 10 16 39 38 18 17 19 20 40 21 45 42 43 22 23 24 44 25 41 26 27 28 29 30

> <s_glide_core_constrain_type>
snapped_core_restrain

> <s_glide_core_smarts>
c1cc(C(F)(F)F)ccc1-c2nn(c(c23)CCN(C3)S(=O)(=O)C)CC(O)C[N]4CCCCC4

> <s_i_glide_gridfile>
glide-grid_1_zrqq

> <s_lp_Force_Field>
S-OPLS

> <s_lp_Variant>
CatS_139-1

> <s_m_Source_File>
glide-dock_SP_1_zrqq_gc4FEset_pv.maegz

> <s_m_Source_Path>
/gpfs/projects/drug_discovery/mergetbj/GRAILS/CatS/glide-dock_SP_1_zrqq_gc4FEset

> <s_m_entry_id>
805

> <s_m_entry_name>
CatS_FEset_compounds_D3R_GC4_answers.14

> <s_m_job_name>
glide-dock_SP_1_zrqq_gc4FEset

> <s_m_source_file>
ligprep_2.maegz

> <s_m_subgroup_title>
glide-dock_SP_1_zrqq_gc4FEset_pv

> <s_m_subgroupid>
glide-dock_SP_1_zrqq_gc4FEset_pv

$$$$
CatS_252
                    3D
 Schrodinger Suite 2023-3.
 90 94  0  0  1  0            999 V2000
   -9.7503   15.6843   -1.4121 C   0  0  0  0  0  0
   -9.2784   14.2894   -0.9873 C   0  0  2  0  0  0
   -7.9602   13.9347   -1.7054 C   0  0  0  0  0  0
   -7.5317   12.4702   -1.4774 C   0  0  0  0  0  0
   -8.6219   11.5541   -1.8989 N   0  3  2  0  0  0
   -9.8546   11.7900   -1.1028 C   0  0  0  0  0  0
  -10.3547   13.2298   -1.3113 C   0  0  0  0  0  0
   -8.2129   10.1292   -1.9796 C   0  0  0  0  0  0
   -8.8508    9.4130   -3.1820 C   0  0  0  0  0  0
   -8.2398    7.7023   -3.3608 S   0  0  0  0  0  0
   -6.7484    7.7030   -4.3167 C   0  0  0  0  0  0
   -6.5999    8.6460   -5.3486 C   0  0  0  0  0  0
   -5.4351    8.6795   -6.1437 C   0  0  0  0  0  0
   -4.4082    7.7507   -5.8842 C   0  0  0  0  0  0
   -4.5624    6.7858   -4.8749 C   0  0  0  0  0  0
   -5.7407    6.7313   -4.0981 C   0  0  0  0  0  0
   -5.9246    5.5907   -3.1006 C   0  0  0  0  0  0
   -4.9085    4.7362   -3.1204 F   0  0  0  0  0  0
   -6.0468    6.0499   -1.8591 F   0  0  0  0  0  0
   -7.0067    4.8866   -3.4124 F   0  0  0  0  0  0
   -5.3414    9.6269   -7.2473 C   0  0  0  0  0  0
   -6.3893   10.0350   -8.1372 C   0  0  0  0  0  0
   -5.8195   10.9264   -8.9753 C   0  0  0  0  0  0
   -4.4814   11.0066   -8.6369 N   0  0  0  0  0  0
   -4.2019   10.2283   -7.5648 N   0  0  0  0  0  0
   -3.4010   11.7078   -9.3070 C   0  0  0  0  0  0
   -3.1299   13.1360   -8.7859 C   0  0  2  0  0  0
   -2.6255   13.1957   -7.3191 C   0  0  0  0  0  0
   -2.4465   14.5867   -6.7986 N   0  3  0  0  0  0
   -2.0829   14.5571   -5.3425 C   0  0  0  0  0  0
   -1.9947   15.9936   -4.7710 C   0  0  0  0  0  0
   -0.9724   16.8403   -5.5497 C   0  0  0  0  0  0
   -1.3960   16.8522   -7.0283 C   0  0  0  0  0  0
   -1.4898   15.4190   -7.6071 C   0  0  0  0  0  0
   -4.2972   13.9257   -8.9123 O   0  0  0  0  0  0
   -6.5005   11.6156  -10.1384 C   0  0  0  0  0  0
   -8.0177   11.2660  -10.1545 C   0  0  0  0  0  0
   -8.2436    9.8718   -9.6779 N   0  0  1  0  0  0
   -7.8293    9.6293   -8.2717 C   0  0  0  0  0  0
   -9.5410    8.9291  -10.3329 S   0  0  0  0  0  0
   -9.3383    7.5389   -9.8835 O   0  0  0  0  0  0
   -9.6703    9.2313  -11.7671 O   0  0  0  0  0  0
  -11.0388    9.5838   -9.4827 C   0  0  0  0  0  0
   -9.0619   14.3364    0.4136 O   0  0  0  0  0  0
   -9.9420   15.7367   -2.4829 H   0  0  0  0  0  0
  -10.6703   15.9640   -0.9068 H   0  0  0  0  0  0
   -9.0022   16.4403   -1.1856 H   0  0  0  0  0  0
   -7.1663   14.6041   -1.3773 H   0  0  0  0  0  0
   -8.0705   14.1060   -2.7790 H   0  0  0  0  0  0
   -7.2951   12.2990   -0.4252 H   0  0  0  0  0  0
   -6.6273   12.2567   -2.0503 H   0  0  0  0  0  0
  -10.6347   11.0836   -1.3901 H   0  0  0  0  0  0
   -9.6440   11.6082   -0.0479 H   0  0  0  0  0  0
  -10.6709   13.3386   -2.3512 H   0  0  0  0  0  0
  -11.2442   13.4041   -0.7060 H   0  0  0  0  0  0
   -8.4386    9.6195   -1.0417 H   0  0  0  0  0  0
   -7.1357   10.0669   -2.1070 H   0  0  0  0  0  0
   -8.6377    9.9739   -4.0918 H   0  0  0  0  0  0
   -9.9374    9.3863   -3.0636 H   0  0  0  0  0  0
   -7.3919    9.3458   -5.5405 H   0  0  0  0  0  0
   -3.5093    7.7684   -6.4793 H   0  0  0  0  0  0
   -3.7758    6.0651   -4.7321 H   0  0  0  0  0  0
   -3.6272   11.7515  -10.3720 H   0  0  0  0  0  0
   -2.4799   11.1213   -9.2281 H   0  0  0  0  0  0
   -2.3879   13.5823   -9.4448 H   0  0  0  0  0  0
   -1.6787   12.6321   -7.2452 H   0  0  0  0  0  0
   -3.3527   12.6870   -6.6760 H   0  0  0  0  0  0
   -1.1116   14.0472   -5.1968 H   0  0  0  0  0  0
   -2.8441   13.9941   -4.7785 H   0  0  0  0  0  0
   -1.7123   15.9619   -3.7152 H   0  0  0  0  0  0
   -2.9817   16.4745   -4.8142 H   0  0  0  0  0  0
   -0.9403   17.8618   -5.1593 H   0  0  0  0  0  0
    0.0284   16.4086   -5.4512 H   0  0  0  0  0  0
   -2.3674   17.3563   -7.1306 H   0  0  0  0  0  0
   -0.6770   17.4289   -7.6131 H   0  0  0  0  0  0
   -0.4878   14.9437   -7.6128 H   0  0  0  0  0  0
   -1.8470   15.5000   -8.6431 H   0  0  0  0  0  0
   -4.5520   13.9814   -9.8206 H   0  0  0  0  0  0
   -6.3801   12.6945  -10.0704 H   0  0  0  0  0  0
   -6.0339   11.2670  -11.0649 H   0  0  0  0  0  0
   -8.5708   11.9556   -9.5035 H   0  0  0  0  0  0
   -8.4193   11.3944  -11.1645 H   0  0  0  0  0  0
   -7.9641    8.5719   -8.0347 H   0  0  0  0  0  0
   -8.4804   10.2033   -7.5966 H   0  0  0  0  0  0
  -11.9298    9.0907   -9.8901 H   0  0  0  0  0  0
  -10.9724    9.3864   -8.4085 H   0  0  0  0  0  0
  -11.1111   10.6608   -9.6605 H   0  0  0  0  0  0
   -8.5108   13.6151    0.6720 H   0  0  0  0  0  0
   -8.8384   11.8111   -2.8489 H   0  0  0  0  0  0
   -3.3682   15.0418   -6.8651 H   0  0  0  0  0  0
  1  2  1  0  0  0
  1 45  1  0  0  0
  1 46  1  0  0  0
  1 47  1  0  0  0
  2  7  1  0  0  0
  2  3  1  0  0  0
  2 44  1  0  0  0
  3  4  1  0  0  0
  3 48  1  0  0  0
  3 49  1  0  0  0
  4  5  1  0  0  0
  4 50  1  0  0  0
  4 51  1  0  0  0
  5  6  1  0  0  0
  5  8  1  0  0  0
  5 89  1  0  0  0
  6  7  1  0  0  0
  6 52  1  0  0  0
  6 53  1  0  0  0
  7 54  1  0  0  0
  7 55  1  0  0  0
  8  9  1  0  0  0
  8 56  1  0  0  0
  8 57  1  0  0  0
  9 10  1  0  0  0
  9 58  1  0  0  0
  9 59  1  0  0  0
 10 11  1  0  0  0
 11 16  1  0  0  0
 11 12  2  0  0  0
 12 13  1  0  0  0
 12 60  1  0  0  0
 13 14  2  0  0  0
 13 21  1  0  0  0
 14 15  1  0  0  0
 14 61  1  0  0  0
 15 16  2  0  0  0
 15 62  1  0  0  0
 16 17  1  0  0  0
 17 18  1  0  0  0
 17 19  1  0  0  0
 17 20  1  0  0  0
 21 25  2  0  0  0
 21 22  1  0  0  0
 22 39  1  0  0  0
 22 23  2  0  0  0
 23 24  1  0  0  0
 23 36  1  0  0  0
 24 25  1  0  0  0
 24 26  1  0  0  0
 26 27  1  0  0  0
 26 63  1  0  0  0
 26 64  1  0  0  0
 27 28  1  0  0  0
 27 35  1  0  0  0
 27 65  1  0  0  0
 28 29  1  0  0  0
 28 66  1  0  0  0
 28 67  1  0  0  0
 29 34  1  0  0  0
 29 30  1  0  0  0
 29 90  1  0  0  0
 30 31  1  0  0  0
 30 68  1  0  0  0
 30 69  1  0  0  0
 31 32  1  0  0  0
 31 70  1  0  0  0
 31 71  1  0  0  0
 32 33  1  0  0  0
 32 72  1  0  0  0
 32 73  1  0  0  0
 33 34  1  0  0  0
 33 74  1  0  0  0
 33 75  1  0  0  0
 34 76  1  0  0  0
 34 77  1  0  0  0
 35 78  1  0  0  0
 36 37  1  0  0  0
 36 79  1  0  0  0
 36 80  1  0  0  0
 37 38  1  0  0  0
 37 81  1  0  0  0
 37 82  1  0  0  0
 38 39  1  0  0  0
 38 40  1  0  0  0
 39 83  1  0  0  0
 39 84  1  0  0  0
 40 41  2  0  0  0
 40 42  2  0  0  0
 40 43  1  0  0  0
 43 85  1  0  0  0
 43 86  1  0  0  0
 43 87  1  0  0  0
 44 88  1  0  0  0
M  CHG  2   5   1  29   1
M  END
> <i_epik_Tot_Q>
2

> <i_epik_Tot_abs_Q>
2

> <i_f3d_flags>
0

> <i_i_glide_confnum>
126

> <i_i_glide_lignum>
39

> <i_i_glide_posenum>
63

> <i_i_glide_rotatable_bonds>
13

> <i_lp_mmshare_version>
63125

> <i_m_Source_File_Index>
37

> <i_m_source_file_index>
37

> <b_lp_Chiralities_Consistent>
1

> <b_m_subgroup_collapsed>
0

> <r_canvas_Affinity>
0.81

> <r_epik_Charging_Adjusted_Penalty>
0.0103738066185264

> <r_epik_Ionization_Penalty>
  0.0104

> <r_epik_Ionization_Penalty_Charging>
  0.0104

> <r_epik_Ionization_Penalty_Neutral>
  0.0001

> <r_epik_State_Penalty>
  0.0000

> <r_i_docking_score>
-7.59706788758746

> <r_i_glide_ecoul>
-7.37725973129272

> <r_i_glide_eff_state_penalty>
0

> <r_i_glide_einternal>
3.75148677825928

> <r_i_glide_emodel>
-78.6404179346828

> <r_i_glide_energy>
-53.5882773399353

> <r_i_glide_erotb>
0.425796353863835

> <r_i_glide_esite>
-0.060826551944819

> <r_i_glide_evdw>
-46.2110176086426

> <r_i_glide_gscore>
-7.59706788758746

> <r_i_glide_hbond>
0

> <r_i_glide_ligand_efficiency>
-0.172660633808806

> <r_i_glide_ligand_efficiency_ln>
-1.58795291761155

> <r_i_glide_ligand_efficiency_sa>
-0.609552180374373

> <r_i_glide_lipo>
-3.31714728240885

> <r_i_glide_metal>
0

> <r_i_glide_rewards>
-1.22775056697158

> <r_i_glide_rmsd>
0.0380675902197422

> <r_lp_Energy>
61.434868

> <r_lp_tautomer_probability>
1

> <s_epik_cmdline>
J2VwaWtfcHl0aG9uJywgJy1waHQnLCAnMC4wJywgJy1waCcsICc3LjAnLCAnLXRuJywgJzgnLCAnLW1hJywgJzUwMCcsICctaW1hZScsICc8aW5maWxlLm1hZT4nLCAnLW9tYWUnLCAnPG91dGZpbGUubWFlPic=

> <s_epik_input>
W0NIM11DMShbT0hdKVtDSDJdW0NIMl1OKFtDSDJdW0NIMl0xKVtDSDJdW0NIMl1TYzJbY0hdYyhbY0hdW2NIXWMyQyhGKShGKUYpLWMzbm4oYyhjMzQpW0NIMl1bQ0gyXU4oW0NIMl00KVMoPU8pKD1PKVtDSDNdKVtDSDJdW0NAQEhdKFtPSF0pW0NIMl1ONVtDSDJdW0NIMl1bQ0gyXVtDSDJdW0NIMl01

> <s_glide_core_atoms_lig>
12 11 16 17 18 19 20 15 14 13 21 25 24 23 22 36 37 38 39 40 41 42 43 26 27 35 28 29 30 31 32 33 34

> <s_glide_core_atoms_ref>
9 8 13 14 34 35 36 12 11 10 16 39 38 18 17 19 20 40 21 45 42 43 22 23 24 44 25 41 26 27 28 29 30

> <s_glide_core_constrain_type>
snapped_core_restrain

> <s_glide_core_smarts>
c1cc(C(F)(F)F)ccc1-c2nn(c(c23)CCN(C3)S(=O)(=O)C)CC(O)C[N]4CCCCC4

> <s_i_glide_gridfile>
glide-grid_1_zrqq

> <s_lp_Force_Field>
S-OPLS

> <s_lp_Variant>
CatS_252-1

> <s_m_Source_File>
glide-dock_SP_1_zrqq_gc4FEset_pv.maegz

> <s_m_Source_Path>
/gpfs/projects/drug_discovery/mergetbj/GRAILS/CatS/glide-dock_SP_1_zrqq_gc4FEset

> <s_m_entry_id>
806

> <s_m_entry_name>
CatS_FEset_compounds_D3R_GC4_answers.37

> <s_m_job_name>
glide-dock_SP_1_zrqq_gc4FEset

> <s_m_source_file>
ligprep_2.maegz

> <s_m_subgroup_title>
glide-dock_SP_1_zrqq_gc4FEset_pv

> <s_m_subgroupid>
glide-dock_SP_1_zrqq_gc4FEset_pv

$$$$
CatS_131
                    3D
 Schrodinger Suite 2023-3.
100105  0  0  1  0            999 V2000
   -4.3913    7.7336   -5.8849 C   0  0  0  0  0  0
   -4.5499    6.7807   -4.8639 C   0  0  0  0  0  0
   -5.7376    6.7355   -4.0989 C   0  0  0  0  0  0
   -6.7461    7.7106   -4.3265 C   0  0  0  0  0  0
   -6.5891    8.6378   -5.3763 C   0  0  0  0  0  0
   -5.4265    8.6544   -6.1646 C   0  0  0  0  0  0
   -5.3567    9.6051   -7.2750 C   0  0  0  0  0  0
   -6.4017   10.0369   -8.1491 C   0  0  0  0  0  0
   -5.7959   10.9444   -8.9674 C   0  0  0  0  0  0
   -4.4602   10.9959   -8.6263 N   0  0  0  0  0  0
   -4.2023   10.1956   -7.5656 N   0  0  0  0  0  0
   -3.3680   11.6986   -9.2858 C   0  0  0  0  0  0
   -3.1178   13.1339   -8.7771 C   0  0  2  0  0  0
   -2.6201   13.2029   -7.3131 C   0  0  0  0  0  0
   -2.4274   14.5886   -6.7921 N   0  3  0  0  0  0
   -1.4956   15.4312   -7.5995 C   0  0  0  0  0  0
   -1.3845   16.8574   -7.0356 C   0  0  0  0  0  0
   -0.9759   16.8480   -5.5602 C   0  0  0  0  0  0
   -1.9731   15.9990   -4.7621 C   0  0  0  0  0  0
   -2.0626   14.5794   -5.3458 C   0  0  0  0  0  0
   -4.3047   13.8927   -8.9159 O   0  0  0  0  0  0
   -6.4709   11.6544  -10.1055 C   0  0  0  0  0  0
   -7.9849   11.3031  -10.1369 C   0  0  0  0  0  0
   -8.2227    9.9011   -9.7309 N   0  0  0  0  0  0
   -7.8564    9.6341   -8.3164 C   0  0  0  0  0  0
   -8.8241    9.0390  -10.5848 C   0  0  0  0  0  0
   -9.5289    8.0904  -10.2411 O   0  0  0  0  0  0
   -8.4822    9.2782  -11.8659 N   0  0  0  0  0  0
   -9.2260    8.9513  -13.0787 C   0  0  0  0  0  0
  -10.3051   10.0405  -13.3201 C   0  0  0  0  0  0
  -10.9387   10.0165  -14.7257 C   0  0  0  0  0  0
   -9.8694   10.0299  -15.8197 C   0  0  0  0  0  0
   -8.9262    8.8401  -15.6365 C   0  0  0  0  0  0
   -8.2452    8.8844  -14.2610 C   0  0  0  0  0  0
   -8.2788    7.6448   -3.4332 S   0  0  0  0  0  0
   -8.9054    9.3250   -3.1800 C   0  0  0  0  0  0
   -8.0549   10.0744   -2.1483 C   0  0  0  0  0  0
   -8.4705   11.4887   -1.9729 N   0  3  1  0  0  0
   -9.7603   11.6622   -1.2500 C   0  0  0  0  0  0
  -10.1772   13.1467   -1.2059 C   0  0  0  0  0  0
   -9.0675   14.0411   -0.6223 C   0  0  2  0  0  0
   -7.7453   13.7825   -1.3580 C   0  0  0  0  0  0
   -7.4015   12.2917   -1.3368 C   0  0  0  0  0  0
   -8.9172   13.7798    0.6758 F   0  0  0  0  0  0
   -5.9341    5.6015   -3.0949 C   0  0  0  0  0  0
   -4.9226    4.7403   -3.1202 F   0  0  0  0  0  0
   -6.0428    6.0814   -1.8568 F   0  0  0  0  0  0
   -7.0286    4.9118   -3.4064 F   0  0  0  0  0  0
   -3.4921    7.7364   -6.4819 H   0  0  0  0  0  0
   -3.7616    6.0611   -4.7030 H   0  0  0  0  0  0
   -7.3812    9.3367   -5.5963 H   0  0  0  0  0  0
   -2.4602   11.1034   -9.1816 H   0  0  0  0  0  0
   -3.5835   11.7214  -10.3559 H   0  0  0  0  0  0
   -2.3669   13.5615   -9.4429 H   0  0  0  0  0  0
   -3.3391   12.6947   -6.6690 H   0  0  0  0  0  0
   -1.6839   12.6508   -7.2248 H   0  0  0  0  0  0
   -0.5115   14.9634   -7.6212 H   0  0  0  0  0  0
   -1.8360   15.5081   -8.6333 H   0  0  0  0  0  0
   -0.6587   17.4283   -7.6160 H   0  0  0  0  0  0
   -2.3382   17.3758   -7.1520 H   0  0  0  0  0  0
   -0.9471   17.8638   -5.1691 H   0  0  0  0  0  0
    0.0317   16.4447   -5.4553 H   0  0  0  0  0  0
   -2.9570   16.4686   -4.7747 H   0  0  0  0  0  0
   -1.6680   15.9497   -3.7168 H   0  0  0  0  0  0
   -2.8068   14.0075   -4.7874 H   0  0  0  0  0  0
   -1.1095   14.0611   -5.2165 H   0  0  0  0  0  0
   -4.1047   14.7211   -9.3336 H   0  0  0  0  0  0
   -6.0060   11.3457  -11.0416 H   0  0  0  0  0  0
   -6.3438   12.7328  -10.0283 H   0  0  0  0  0  0
   -8.4405   11.6104  -11.0808 H   0  0  0  0  0  0
   -8.4878   11.9200   -9.3897 H   0  0  0  0  0  0
   -8.5147   10.1972   -7.6583 H   0  0  0  0  0  0
   -8.0022    8.5796   -8.0786 H   0  0  0  0  0  0
   -7.7797    9.9926  -11.9888 H   0  0  0  0  0  0
   -9.6698    7.9616  -12.9750 H   0  0  0  0  0  0
   -9.8530   11.0232  -13.1833 H   0  0  0  0  0  0
  -11.0852    9.9717  -12.5613 H   0  0  0  0  0  0
  -11.5984   10.8759  -14.8457 H   0  0  0  0  0  0
  -11.5625    9.1360  -14.8742 H   0  0  0  0  0  0
   -9.3041   10.9632  -15.7841 H   0  0  0  0  0  0
  -10.3400    9.9862  -16.8027 H   0  0  0  0  0  0
   -8.1693    8.8348  -16.4244 H   0  0  0  0  0  0
   -9.4795    7.9049  -15.7409 H   0  0  0  0  0  0
   -7.6702    7.9767  -14.1479 H   0  0  0  0  0  0
   -7.5477    9.7233  -14.2336 H   0  0  0  0  0  0
   -8.9445    9.8568   -4.1303 H   0  0  0  0  0  0
   -9.9352    9.2296   -2.8376 H   0  0  0  0  0  0
   -8.0716    9.5548   -1.1903 H   0  0  0  0  0  0
   -7.0205   10.0510   -2.5000 H   0  0  0  0  0  0
  -10.5515   11.0924   -1.7344 H   0  0  0  0  0  0
   -9.6689   11.2711   -0.2368 H   0  0  0  0  0  0
  -10.4200   13.4886   -2.2140 H   0  0  0  0  0  0
  -11.0902   13.2593   -0.6219 H   0  0  0  0  0  0
   -9.3444   15.0933   -0.6938 H   0  0  0  0  0  0
   -6.9257   14.3364   -0.9028 H   0  0  0  0  0  0
   -7.8166   14.1330   -2.3892 H   0  0  0  0  0  0
   -7.2780   11.9595   -0.3119 H   0  0  0  0  0  0
   -6.4585   12.1230   -1.8468 H   0  0  0  0  0  0
   -3.3344   15.0280   -6.8558 H   0  0  0  0  0  0
   -8.5897   11.8666   -2.9032 H   0  0  0  0  0  0
  1  6  1  0  0  0
  1  2  2  0  0  0
  1 49  1  0  0  0
  2  3  1  0  0  0
  2 50  1  0  0  0
  3  4  2  0  0  0
  3 45  1  0  0  0
  4  5  1  0  0  0
  4 35  1  0  0  0
  5  6  2  0  0  0
  5 51  1  0  0  0
  6  7  1  0  0  0
  7 11  2  0  0  0
  7  8  1  0  0  0
  8 25  1  0  0  0
  8  9  2  0  0  0
  9 10  1  0  0  0
  9 22  1  0  0  0
 10 11  1  0  0  0
 10 12  1  0  0  0
 12 13  1  0  0  0
 12 52  1  0  0  0
 12 53  1  0  0  0
 13 14  1  0  0  0
 13 21  1  0  0  0
 13 54  1  0  0  0
 14 15  1  0  0  0
 14 55  1  0  0  0
 14 56  1  0  0  0
 15 20  1  0  0  0
 15 16  1  0  0  0
 15 99  1  0  0  0
 16 17  1  0  0  0
 16 57  1  0  0  0
 16 58  1  0  0  0
 17 18  1  0  0  0
 17 59  1  0  0  0
 17 60  1  0  0  0
 18 19  1  0  0  0
 18 61  1  0  0  0
 18 62  1  0  0  0
 19 20  1  0  0  0
 19 63  1  0  0  0
 19 64  1  0  0  0
 20 65  1  0  0  0
 20 66  1  0  0  0
 21 67  1  0  0  0
 22 23  1  0  0  0
 22 68  1  0  0  0
 22 69  1  0  0  0
 23 24  1  0  0  0
 23 70  1  0  0  0
 23 71  1  0  0  0
 24 25  1  0  0  0
 24 26  1  0  0  0
 25 72  1  0  0  0
 25 73  1  0  0  0
 26 27  2  0  0  0
 26 28  1  0  0  0
 28 29  1  0  0  0
 28 74  1  0  0  0
 29 34  1  0  0  0
 29 30  1  0  0  0
 29 75  1  0  0  0
 30 31  1  0  0  0
 30 76  1  0  0  0
 30 77  1  0  0  0
 31 32  1  0  0  0
 31 78  1  0  0  0
 31 79  1  0  0  0
 32 33  1  0  0  0
 32 80  1  0  0  0
 32 81  1  0  0  0
 33 34  1  0  0  0
 33 82  1  0  0  0
 33 83  1  0  0  0
 34 84  1  0  0  0
 34 85  1  0  0  0
 35 36  1  0  0  0
 36 37  1  0  0  0
 36 86  1  0  0  0
 36 87  1  0  0  0
 37 38  1  0  0  0
 37 88  1  0  0  0
 37 89  1  0  0  0
 38 43  1  0  0  0
 38 39  1  0  0  0
 38100  1  0  0  0
 39 40  1  0  0  0
 39 90  1  0  0  0
 39 91  1  0  0  0
 40 41  1  0  0  0
 40 92  1  0  0  0
 40 93  1  0  0  0
 41 42  1  0  0  0
 41 44  1  0  0  0
 41 94  1  0  0  0
 42 43  1  0  0  0
 42 95  1  0  0  0
 42 96  1  0  0  0
 43 97  1  0  0  0
 43 98  1  0  0  0
 45 46  1  0  0  0
 45 47  1  0  0  0
 45 48  1  0  0  0
M  CHG  2  15   1  38   1
M  END
> <i_epik_Tot_Q>
2

> <i_epik_Tot_abs_Q>
2

> <i_f3d_flags>
0

> <i_i_glide_confnum>
4077

> <i_i_glide_lignum>
14

> <i_i_glide_posenum>
385

> <i_i_glide_rotatable_bonds>
14

> <i_lp_mmshare_version>
63125

> <i_m_Source_File_Index>
12

> <i_m_source_file_index>
12

> <b_lp_Chiralities_Consistent>
1

> <b_m_subgroup_collapsed>
0

> <r_canvas_Affinity>
0.27

> <r_epik_Charging_Adjusted_Penalty>
0.135119144620326

> <r_epik_Ionization_Penalty>
  0.0712

> <r_epik_Ionization_Penalty_Charging>
  0.0709

> <r_epik_Ionization_Penalty_Neutral>
  0.0003

> <r_epik_State_Penalty>
  0.0642

> <r_i_docking_score>
-7.48907762418349

> <r_i_glide_ecoul>
-3.89809036254883

> <r_i_glide_eff_state_penalty>
0.0642

> <r_i_glide_einternal>
18.8065643310547

> <r_i_glide_emodel>
-57.0559714875772

> <r_i_glide_energy>
-50.5008697509766

> <r_i_glide_erotb>
0.39980262477425

> <r_i_glide_esite>
0

> <r_i_glide_evdw>
-46.6027793884277

> <r_i_glide_gscore>
-7.55327762418349

> <r_i_glide_hbond>
0

> <r_i_glide_ligand_efficiency>
-0.156022450503823

> <r_i_glide_ligand_efficiency_ln>
-1.5374191308085

> <r_i_glide_ligand_efficiency_sa>
-0.567023214777572

> <r_i_glide_lipo>
-3.4610443571797

> <r_i_glide_metal>
0

> <r_i_glide_rewards>
-1.57718336797433

> <r_i_glide_rmsd>
0.0416773088109445

> <r_lp_Energy>
68.296988

> <r_lp_tautomer_probability>
1

> <s_epik_cmdline>
J2VwaWtfcHl0aG9uJywgJy1waHQnLCAnMC4wJywgJy1waCcsICc3LjAnLCAnLXRuJywgJzgnLCAnLW1hJywgJzUwMCcsICctaW1hZScsICc8aW5maWxlLm1hZT4nLCAnLW9tYWUnLCAnPG91dGZpbGUubWFlPic=

> <s_epik_input>
W0NIMl0xW0NIMl1bQ0hdKEYpW0NIMl1bQ0gyXU4xW0NIMl1bQ0gyXVNjMltjSF1jKFtjSF1bY0hdYzJDKEYpKEYpRiktYzNubihbQ0gyXVtDQEBIXShbT0hdKVtDSDJdTjRbQ0gyXVtDSDJdW0NIMl1bQ0gyXVtDSDJdNCljKGMzNSlbQ0gyXVtDSDJdTihbQ0gyXTUpQyg9TylbTkhdW0NIXTZbQ0gyXVtDSDJdW0NIMl1bQ0gyXVtDSDJdNg==

> <s_glide_core_atoms_lig>
5 4 3 45 46 47 48 2 1 6 7 11 10 9 8 22 23 24 25 12 13 21 14 15 20 19 18 17 16

> <s_glide_core_atoms_ref>
9 8 13 14 34 35 36 12 11 10 16 39 38 18 17 19 20 40 21 23 24 44 25 41 26 27 28 29 30

> <s_glide_core_constrain_type>
snapped_core_restrain

> <s_glide_core_smarts>
c1cc(C(F)(F)F)ccc1-c2nn(c(c23)CCNC3)CC(O)C[N]4CCCCC4

> <s_i_glide_gridfile>
glide-grid_1_zrqq

> <s_lp_Force_Field>
S-OPLS

> <s_lp_Variant>
CatS_131-1

> <s_m_Source_File>
glide-dock_SP_1_zrqq_gc4FEset_pv.maegz

> <s_m_Source_Path>
/gpfs/projects/drug_discovery/mergetbj/GRAILS/CatS/glide-dock_SP_1_zrqq_gc4FEset

> <s_m_entry_id>
807

> <s_m_entry_name>
CatS_FEset_compounds_D3R_GC4_answers.12

> <s_m_job_name>
glide-dock_SP_1_zrqq_gc4FEset

> <s_m_source_file>
ligprep_2.maegz

> <s_m_subgroup_title>
glide-dock_SP_1_zrqq_gc4FEset_pv

> <s_m_subgroupid>
glide-dock_SP_1_zrqq_gc4FEset_pv

$$$$
CatS_142
                    3D
 Schrodinger Suite 2023-3.
 87 91  0  0  1  0            999 V2000
   -9.0770    8.3226  -12.8793 C   0  0  0  0  0  0
   -8.5838    9.1448  -11.7880 N   0  0  0  0  0  0
   -8.8807    9.0073  -10.4887 C   0  0  0  0  0  0
   -9.6159    8.0990  -10.0547 O   0  0  0  0  0  0
   -8.2471    9.9055   -9.7067 N   0  0  0  0  0  0
   -7.9846   11.3056  -10.1435 C   0  0  0  0  0  0
   -6.4723   11.6277  -10.1318 C   0  0  0  0  0  0
   -5.7943   10.9272   -8.9808 C   0  0  0  0  0  0
   -6.4077   10.0377   -8.1490 C   0  0  0  0  0  0
   -5.3514    9.6276   -7.2615 C   0  0  0  0  0  0
   -4.2033   10.2184   -7.5549 N   0  0  0  0  0  0
   -4.4671   10.9987   -8.6286 N   0  0  0  0  0  0
   -3.3809   11.7087   -9.2862 C   0  0  0  0  0  0
   -3.1340   13.1459   -8.7769 C   0  0  2  0  0  0
   -2.6158   13.1940   -7.3201 C   0  0  0  0  0  0
   -2.4401   14.5833   -6.7931 N   0  3  0  0  0  0
   -1.4859   15.4215   -7.6044 C   0  0  0  0  0  0
   -1.3879   16.8512   -7.0365 C   0  0  0  0  0  0
   -0.9829   16.8493   -5.5565 C   0  0  0  0  0  0
   -1.9863   15.9877   -4.7642 C   0  0  0  0  0  0
   -2.0754   14.5590   -5.3451 C   0  0  0  0  0  0
   -4.3111   13.9179   -8.9165 O   0  0  0  0  0  0
   -5.4448    8.6677   -6.1476 C   0  0  0  0  0  0
   -4.4010    7.7462   -5.8966 C   0  0  0  0  0  0
   -4.5441    6.7866   -4.8789 C   0  0  0  0  0  0
   -5.7260    6.7100   -4.1064 C   0  0  0  0  0  0
   -6.7418    7.6600   -4.3251 C   0  0  0  0  0  0
   -6.5905    8.6226   -5.3405 C   0  0  0  0  0  0
   -8.2469    7.6313   -3.3860 S   0  0  0  0  0  0
   -8.8575    9.3298   -3.2301 C   0  0  0  0  0  0
   -8.0461   10.1385   -2.2174 C   0  0  0  0  0  0
   -8.5224   11.5388   -2.0628 N   0  3  2  0  0  0
   -7.5640   12.3339   -1.2588 C   0  0  0  0  0  0
   -7.9794   13.8155   -1.1739 C   0  0  0  0  0  0
   -9.3981   13.9577   -0.6025 C   0  0  1  0  0  0
  -10.3739   13.0933   -1.4170 C   0  0  0  0  0  0
   -9.8972   11.6317   -1.4984 C   0  0  0  0  0  0
   -9.4100   13.5922    0.6876 F   0  0  0  0  0  0
   -5.9058    5.5718   -3.1049 C   0  0  0  0  0  0
   -4.8723    4.7361   -3.0995 F   0  0  0  0  0  0
   -6.0497    6.0642   -1.8688 F   0  0  0  0  0  0
   -6.9821    4.8684   -3.4045 F   0  0  0  0  0  0
   -7.8514    9.6225   -8.3124 C   0  0  0  0  0  0
   -8.2968    8.1364  -13.6055 H   0  0  0  0  0  0
   -9.9009    8.8097  -13.3862 H   0  0  0  0  0  0
   -9.4276    7.3418  -12.5068 H   0  0  0  0  0  0
   -7.9146    9.8575  -12.0463 H   0  0  0  0  0  0
   -8.4379   11.5610  -11.1035 H   0  0  0  0  0  0
   -8.4937   11.9797   -9.4352 H   0  0  0  0  0  0
   -6.0093   11.2925  -11.0652 H   0  0  0  0  0  0
   -6.3233   12.7001  -10.0710 H   0  0  0  0  0  0
   -2.4696   11.1155   -9.1942 H   0  0  0  0  0  0
   -3.6153   11.7401  -10.3499 H   0  0  0  0  0  0
   -2.4104   13.6021   -9.4454 H   0  0  0  0  0  0
   -3.3042   12.6639   -6.6682 H   0  0  0  0  0  0
   -1.6679   12.6526   -7.2551 H   0  0  0  0  0  0
   -0.5130   14.9639   -7.6147 H   0  0  0  0  0  0
   -1.7978   15.4986   -8.6624 H   0  0  0  0  0  0
   -0.6617   17.4287   -7.6177 H   0  0  0  0  0  0
   -2.3449   17.3548   -7.1524 H   0  0  0  0  0  0
   -0.9638   17.8680   -5.1668 H   0  0  0  0  0  0
    0.0245   16.4481   -5.4504 H   0  0  0  0  0  0
   -2.9743   16.4511   -4.7851 H   0  0  0  0  0  0
   -1.6921   15.9434   -3.7134 H   0  0  0  0  0  0
   -2.8058   13.9879   -4.7725 H   0  0  0  0  0  0
   -1.1154   14.0508   -5.2027 H   0  0  0  0  0  0
   -4.0736   14.8152   -9.0903 H   0  0  0  0  0  0
   -3.5012    7.7487   -6.4893 H   0  0  0  0  0  0
   -3.7535    6.0782   -4.7133 H   0  0  0  0  0  0
   -7.3875    9.3398   -5.5044 H   0  0  0  0  0  0
   -8.8688    9.7895   -4.2126 H   0  0  0  0  0  0
   -9.8932    9.2649   -2.9086 H   0  0  0  0  0  0
   -8.0649    9.6344   -1.2479 H   0  0  0  0  0  0
   -7.0044   10.1635   -2.5392 H   0  0  0  0  0  0
   -7.5041   11.9199   -0.2499 H   0  0  0  0  0  0
   -6.5646   12.2567   -1.7007 H   0  0  0  0  0  0
   -7.2708   14.3357   -0.5522 H   0  0  0  0  0  0
   -7.9071   14.2756   -2.1607 H   0  0  0  0  0  0
   -9.7008   15.0081   -0.6247 H   0  0  0  0  0  0
  -10.4823   13.5054   -2.4214 H   0  0  0  0  0  0
  -11.3570   13.1442   -0.9529 H   0  0  0  0  0  0
  -10.5872   11.0788   -2.1237 H   0  0  0  0  0  0
   -9.9256   11.1752   -0.5011 H   0  0  0  0  0  0
   -8.5034   10.1765   -7.6329 H   0  0  0  0  0  0
   -7.9950    8.5631   -8.0871 H   0  0  0  0  0  0
   -3.3479   15.0260   -6.8662 H   0  0  0  0  0  0
   -8.5464   11.9651   -2.9846 H   0  0  0  0  0  0
  1  2  1  0  0  0
  1 44  1  0  0  0
  1 45  1  0  0  0
  1 46  1  0  0  0
  2  3  1  0  0  0
  2 47  1  0  0  0
  3  4  2  0  0  0
  3  5  1  0  0  0
  5 43  1  0  0  0
  5  6  1  0  0  0
  6  7  1  0  0  0
  6 48  1  0  0  0
  6 49  1  0  0  0
  7  8  1  0  0  0
  7 50  1  0  0  0
  7 51  1  0  0  0
  8 12  1  0  0  0
  8  9  2  0  0  0
  9 10  1  0  0  0
  9 43  1  0  0  0
 10 11  2  0  0  0
 10 23  1  0  0  0
 11 12  1  0  0  0
 12 13  1  0  0  0
 13 14  1  0  0  0
 13 52  1  0  0  0
 13 53  1  0  0  0
 14 15  1  0  0  0
 14 22  1  0  0  0
 14 54  1  0  0  0
 15 16  1  0  0  0
 15 55  1  0  0  0
 15 56  1  0  0  0
 16 21  1  0  0  0
 16 17  1  0  0  0
 16 86  1  0  0  0
 17 18  1  0  0  0
 17 57  1  0  0  0
 17 58  1  0  0  0
 18 19  1  0  0  0
 18 59  1  0  0  0
 18 60  1  0  0  0
 19 20  1  0  0  0
 19 61  1  0  0  0
 19 62  1  0  0  0
 20 21  1  0  0  0
 20 63  1  0  0  0
 20 64  1  0  0  0
 21 65  1  0  0  0
 21 66  1  0  0  0
 22 67  1  0  0  0
 23 28  1  0  0  0
 23 24  2  0  0  0
 24 25  1  0  0  0
 24 68  1  0  0  0
 25 26  2  0  0  0
 25 69  1  0  0  0
 26 27  1  0  0  0
 26 39  1  0  0  0
 27 28  2  0  0  0
 27 29  1  0  0  0
 28 70  1  0  0  0
 29 30  1  0  0  0
 30 31  1  0  0  0
 30 71  1  0  0  0
 30 72  1  0  0  0
 31 32  1  0  0  0
 31 73  1  0  0  0
 31 74  1  0  0  0
 32 37  1  0  0  0
 32 33  1  0  0  0
 32 87  1  0  0  0
 33 34  1  0  0  0
 33 75  1  0  0  0
 33 76  1  0  0  0
 34 35  1  0  0  0
 34 77  1  0  0  0
 34 78  1  0  0  0
 35 36  1  0  0  0
 35 38  1  0  0  0
 35 79  1  0  0  0
 36 37  1  0  0  0
 36 80  1  0  0  0
 36 81  1  0  0  0
 37 82  1  0  0  0
 37 83  1  0  0  0
 39 40  1  0  0  0
 39 41  1  0  0  0
 39 42  1  0  0  0
 43 84  1  0  0  0
 43 85  1  0  0  0
M  CHG  2  16   1  32   1
M  END
> <i_epik_Tot_Q>
2

> <i_epik_Tot_abs_Q>
2

> <i_f3d_flags>
0

> <i_i_glide_confnum>
2081

> <i_i_glide_lignum>
18

> <i_i_glide_posenum>
124

> <i_i_glide_rotatable_bonds>
13

> <i_lp_mmshare_version>
63125

> <i_m_Source_File_Index>
16

> <i_m_source_file_index>
16

> <b_lp_Chiralities_Consistent>
1

> <b_m_subgroup_collapsed>
0

> <r_canvas_Affinity>
0.59

> <r_epik_Charging_Adjusted_Penalty>
0.135119144620326

> <r_epik_Ionization_Penalty>
  0.0711

> <r_epik_Ionization_Penalty_Charging>
  0.0709

> <r_epik_Ionization_Penalty_Neutral>
  0.0002

> <r_epik_State_Penalty>
  0.0642

> <r_i_docking_score>
-7.43895607177171

> <r_i_glide_ecoul>
-3.760178565979

> <r_i_glide_eff_state_penalty>
0.0642

> <r_i_glide_einternal>
7.70191097259521

> <r_i_glide_emodel>
-70.3808905454251

> <r_i_glide_energy>
-49.0155801773071

> <r_i_glide_erotb>
0.450438452499277

> <r_i_glide_esite>
0

> <r_i_glide_evdw>
-45.2554016113281

> <r_i_glide_gscore>
-7.50315607177171

> <r_i_glide_hbond>
0

> <r_i_glide_ligand_efficiency>
-0.172998978413296

> <r_i_glide_ligand_efficiency_ln>
-1.56241197408441

> <r_i_glide_ligand_efficiency_sa>
-0.606084284662157

> <r_i_glide_lipo>
-3.44326074793974

> <r_i_glide_metal>
0

> <r_i_glide_rewards>
-1.68353691086799

> <r_i_glide_rmsd>
0.0418258154532284

> <r_lp_Energy>
58.216548

> <r_lp_tautomer_probability>
1

> <s_epik_cmdline>
J2VwaWtfcHl0aG9uJywgJy1waHQnLCAnMC4wJywgJy1waCcsICc3LjAnLCAnLXRuJywgJzgnLCAnLW1hJywgJzUwMCcsICctaW1hZScsICc8aW5maWxlLm1hZT4nLCAnLW9tYWUnLCAnPG91dGZpbGUubWFlPic=

> <s_epik_input>
W0NIMl0xW0NIMl1bQ0gyXVtDSDJdW0NIMl1OMVtDSDJdW0NASF0oW09IXSlbQ0gyXW4ybmMoYyhjMjMpW0NIMl1OKFtDSDJdW0NIMl0zKUMoPU8pW05IXVtDSDNdKS1jNFtjSF1bY0hdYyhDKEYpKEYpRiljKFtjSF00KVNbQ0gyXVtDSDJdTjVbQ0gyXVtDSDJdW0NIXShGKVtDSDJdW0NIMl01

> <s_glide_core_atoms_lig>
28 27 26 39 40 41 42 25 24 23 10 11 12 8 9 7 6 5 43 13 14 22 15 16 21 20 19 18 17

> <s_glide_core_atoms_ref>
9 8 13 14 34 35 36 12 11 10 16 39 38 18 17 19 20 40 21 23 24 44 25 41 26 27 28 29 30

> <s_glide_core_constrain_type>
snapped_core_restrain

> <s_glide_core_smarts>
c1cc(C(F)(F)F)ccc1-c2nn(c(c23)CCNC3)CC(O)C[N]4CCCCC4

> <s_i_glide_gridfile>
glide-grid_1_zrqq

> <s_lp_Force_Field>
S-OPLS

> <s_lp_Variant>
CatS_142-1

> <s_m_Source_File>
glide-dock_SP_1_zrqq_gc4FEset_pv.maegz

> <s_m_Source_Path>
/gpfs/projects/drug_discovery/mergetbj/GRAILS/CatS/glide-dock_SP_1_zrqq_gc4FEset

> <s_m_entry_id>
808

> <s_m_entry_name>
CatS_FEset_compounds_D3R_GC4_answers.16

> <s_m_job_name>
glide-dock_SP_1_zrqq_gc4FEset

> <s_m_source_file>
ligprep_2.maegz

> <s_m_subgroup_title>
glide-dock_SP_1_zrqq_gc4FEset_pv

> <s_m_subgroupid>
glide-dock_SP_1_zrqq_gc4FEset_pv

$$$$
CatS_153
                    3D
 Schrodinger Suite 2023-3.
 89 93  0  0  1  0            999 V2000
    0.5043   16.3236   -5.3743 C   0  0  0  0  0  0
   -0.9412   16.8379   -5.5514 C   0  0  2  0  0  0
   -1.9737   15.9954   -4.7713 C   0  0  0  0  0  0
   -2.0840   14.5648   -5.3261 C   0  0  0  0  0  0
   -2.4449   14.5804   -6.7938 N   0  3  1  0  0  0
   -1.4933   15.4287   -7.6146 C   0  0  0  0  0  0
   -1.3824   16.8475   -7.0309 C   0  0  0  0  0  0
   -2.6316   13.1789   -7.3204 C   0  0  0  0  0  0
   -3.1368   13.1264   -8.7785 C   0  0  1  0  0  0
   -3.3920   11.6984   -9.3054 C   0  0  0  0  0  0
   -4.4704   10.9883   -8.6363 N   0  0  0  0  0  0
   -5.8032   10.9302   -8.9767 C   0  0  0  0  0  0
   -6.3925   10.0345   -8.1303 C   0  0  0  0  0  0
   -5.3515    9.6249   -7.2497 C   0  0  0  0  0  0
   -4.2061   10.2118   -7.5674 N   0  0  0  0  0  0
   -5.4405    8.6664   -6.1375 C   0  0  0  0  0  0
   -4.4089    7.7500   -5.8767 C   0  0  0  0  0  0
   -4.5575    6.7812   -4.8708 C   0  0  0  0  0  0
   -5.7325    6.7191   -4.0959 C   0  0  0  0  0  0
   -6.7431    7.6867   -4.3036 C   0  0  0  0  0  0
   -6.5950    8.6352   -5.3337 C   0  0  0  0  0  0
   -8.2162    7.6928   -3.3110 S   0  0  0  0  0  0
   -8.8630    9.3849   -3.1601 C   0  0  0  0  0  0
   -8.1278   10.2053   -2.0829 C   0  0  0  0  0  0
   -8.7021   11.5459   -1.9385 N   0  0  2  0  0  0
   -7.7852   12.4259   -1.2079 C   0  0  0  0  0  0
   -8.3578   13.8532   -1.1324 C   0  0  0  0  0  0
   -9.7288   13.8557   -0.4496 C   0  0  0  0  0  0
  -10.6449   12.8448   -1.1465 C   0  0  0  0  0  0
   -9.9721   11.4696   -1.2092 C   0  0  0  0  0  0
  -10.9442   13.2736   -2.3944 F   0  0  0  0  0  0
  -11.8087   12.7451   -0.4677 F   0  0  0  0  0  0
   -5.9099    5.5793   -3.0899 C   0  0  0  0  0  0
   -4.8799    4.7360   -3.1082 F   0  0  0  0  0  0
   -6.0421    6.0525   -1.8500 F   0  0  0  0  0  0
   -6.9921    4.8734   -3.4123 F   0  0  0  0  0  0
   -7.8400    9.6339   -8.2671 C   0  0  0  0  0  0
   -8.2518    9.8731   -9.6692 N   0  0  2  0  0  0
   -8.0104   11.2565  -10.1528 C   0  0  0  0  0  0
   -6.4977   11.6141  -10.1354 C   0  0  0  0  0  0
   -9.5448    8.9212  -10.3270 S   0  0  0  0  0  0
   -9.3437    7.5372   -9.8893 O   0  0  0  0  0  0
   -9.6598    9.2287  -11.7697 O   0  0  0  0  0  0
  -11.0498    9.5877   -9.4829 C   0  0  0  0  0  0
   -4.3034   13.9201   -8.9148 O   0  0  0  0  0  0
   -0.9639   18.1630   -5.0675 O   0  0  0  0  0  0
    0.6294   15.3054   -5.7440 H   0  0  0  0  0  0
    0.8013   16.3210   -4.3253 H   0  0  0  0  0  0
    1.2175   16.9468   -5.9147 H   0  0  0  0  0  0
   -1.7164   15.9649   -3.7138 H   0  0  0  0  0  0
   -2.9545   16.4725   -4.8300 H   0  0  0  0  0  0
   -2.8368   14.0175   -4.7624 H   0  0  0  0  0  0
   -1.1445   14.0327   -5.1781 H   0  0  0  0  0  0
   -1.8426   15.5063   -8.6408 H   0  0  0  0  0  0
   -0.5147   14.9516   -7.6563 H   0  0  0  0  0  0
   -2.3527   17.3412   -7.1187 H   0  0  0  0  0  0
   -0.6896   17.4401   -7.6268 H   0  0  0  0  0  0
   -1.6869   12.6381   -7.2273 H   0  0  0  0  0  0
   -3.3426   12.6521   -6.6839 H   0  0  0  0  0  0
   -2.4050   13.5837   -9.4441 H   0  0  0  0  0  0
   -3.6211   11.7343  -10.3742 H   0  0  0  0  0  0
   -2.4856   11.0970   -9.2149 H   0  0  0  0  0  0
   -3.5060    7.7642   -6.4696 H   0  0  0  0  0  0
   -3.7591    6.0724   -4.7140 H   0  0  0  0  0  0
   -7.3775    9.3432   -5.5355 H   0  0  0  0  0  0
   -8.7959    9.8815   -4.1273 H   0  0  0  0  0  0
   -9.9252    9.3045   -2.9388 H   0  0  0  0  0  0
   -8.1766    9.6860   -1.1254 H   0  0  0  0  0  0
   -7.0697   10.2772   -2.3439 H   0  0  0  0  0  0
   -7.6151   12.0408   -0.2024 H   0  0  0  0  0  0
   -6.8166   12.4524   -1.7066 H   0  0  0  0  0  0
   -7.6702   14.5001   -0.5859 H   0  0  0  0  0  0
   -8.4392   14.2722   -2.1365 H   0  0  0  0  0  0
   -9.6192   13.5876    0.5997 H   0  0  0  0  0  0
  -10.1695   14.8536   -0.4761 H   0  0  0  0  0  0
  -10.6441   10.7729   -1.7095 H   0  0  0  0  0  0
   -9.8150   11.0893   -0.2022 H   0  0  0  0  0  0
   -7.9895    8.5906   -7.9933 H   0  0  0  0  0  0
   -8.4721   10.2194   -7.6025 H   0  0  0  0  0  0
   -8.5550   11.9372   -9.4991 H   0  0  0  0  0  0
   -8.4230   11.3950  -11.1519 H   0  0  0  0  0  0
   -6.3743   12.6941  -10.0701 H   0  0  0  0  0  0
   -6.0293   11.3060  -11.0675 H   0  0  0  0  0  0
  -11.9330    9.1051   -9.8947 H   0  0  0  0  0  0
  -10.9916    9.3764   -8.4173 H   0  0  0  0  0  0
  -11.1168   10.6615   -9.6477 H   0  0  0  0  0  0
   -5.0060   13.5171   -8.4246 H   0  0  0  0  0  0
   -0.6847   18.1712   -4.1647 H   0  0  0  0  0  0
   -3.3639   15.0186   -6.8774 H   0  0  0  0  0  0
  1  2  1  0  0  0
  1 47  1  0  0  0
  1 48  1  0  0  0
  1 49  1  0  0  0
  2  7  1  0  0  0
  2  3  1  0  0  0
  2 46  1  0  0  0
  3  4  1  0  0  0
  3 50  1  0  0  0
  3 51  1  0  0  0
  4  5  1  0  0  0
  4 52  1  0  0  0
  4 53  1  0  0  0
  5  6  1  0  0  0
  5  8  1  0  0  0
  5 89  1  0  0  0
  6  7  1  0  0  0
  6 54  1  0  0  0
  6 55  1  0  0  0
  7 56  1  0  0  0
  7 57  1  0  0  0
  8  9  1  0  0  0
  8 58  1  0  0  0
  8 59  1  0  0  0
  9 10  1  0  0  0
  9 45  1  0  0  0
  9 60  1  0  0  0
 10 11  1  0  0  0
 10 61  1  0  0  0
 10 62  1  0  0  0
 11 15  1  0  0  0
 11 12  1  0  0  0
 12 40  1  0  0  0
 12 13  2  0  0  0
 13 14  1  0  0  0
 13 37  1  0  0  0
 14 15  2  0  0  0
 14 16  1  0  0  0
 16 21  1  0  0  0
 16 17  2  0  0  0
 17 18  1  0  0  0
 17 63  1  0  0  0
 18 19  2  0  0  0
 18 64  1  0  0  0
 19 20  1  0  0  0
 19 33  1  0  0  0
 20 21  2  0  0  0
 20 22  1  0  0  0
 21 65  1  0  0  0
 22 23  1  0  0  0
 23 24  1  0  0  0
 23 66  1  0  0  0
 23 67  1  0  0  0
 24 25  1  0  0  0
 24 68  1  0  0  0
 24 69  1  0  0  0
 25 30  1  0  0  0
 25 26  1  0  0  0
 26 27  1  0  0  0
 26 70  1  0  0  0
 26 71  1  0  0  0
 27 28  1  0  0  0
 27 72  1  0  0  0
 27 73  1  0  0  0
 28 29  1  0  0  0
 28 74  1  0  0  0
 28 75  1  0  0  0
 29 30  1  0  0  0
 29 31  1  0  0  0
 29 32  1  0  0  0
 30 76  1  0  0  0
 30 77  1  0  0  0
 33 34  1  0  0  0
 33 35  1  0  0  0
 33 36  1  0  0  0
 37 38  1  0  0  0
 37 78  1  0  0  0
 37 79  1  0  0  0
 38 39  1  0  0  0
 38 41  1  0  0  0
 39 40  1  0  0  0
 39 80  1  0  0  0
 39 81  1  0  0  0
 40 82  1  0  0  0
 40 83  1  0  0  0
 41 42  2  0  0  0
 41 43  2  0  0  0
 41 44  1  0  0  0
 44 84  1  0  0  0
 44 85  1  0  0  0
 44 86  1  0  0  0
 45 87  1  0  0  0
 46 88  1  0  0  0
M  CHG  1   5   1
M  END
> <i_epik_Tot_Q>
1

> <i_epik_Tot_abs_Q>
1

> <i_f3d_flags>
0

> <i_i_glide_confnum>
2587

> <i_i_glide_lignum>
20

> <i_i_glide_posenum>
255

> <i_i_glide_rotatable_bonds>
13

> <i_lp_mmshare_version>
63125

> <i_m_Source_File_Index>
18

> <i_m_source_file_index>
18

> <b_lp_Chiralities_Consistent>
1

> <b_m_subgroup_collapsed>
0

> <r_canvas_Affinity>
0.29

> <r_epik_Charging_Adjusted_Penalty>
0.0758877978288399

> <r_epik_Ionization_Penalty>
  0.0760

> <r_epik_Ionization_Penalty_Charging>
  0.0059

> <r_epik_Ionization_Penalty_Neutral>
  0.0701

> <r_epik_State_Penalty>
  0.0700

> <r_i_docking_score>
-7.4362002290425

> <r_i_glide_ecoul>
-5.4649658203125

> <r_i_glide_eff_state_penalty>
0.07

> <r_i_glide_einternal>
2.57073330879211

> <r_i_glide_emodel>
-77.9015473444879

> <r_i_glide_energy>
-51.7830696105957

> <r_i_glide_erotb>
0.355811321030201

> <r_i_glide_esite>
-0.080686011228679

> <r_i_glide_evdw>
-46.3181037902832

> <r_i_glide_gscore>
-7.5062002290425

> <r_i_glide_hbond>
0

> <r_i_glide_ligand_efficiency>
-0.161656526718315

> <r_i_glide_ligand_efficiency_ln>
-1.54001915206405

> <r_i_glide_ligand_efficiency_sa>
-0.579223073154679

> <r_i_glide_lipo>
-3.42063276025279

> <r_i_glide_metal>
0

> <r_i_glide_rewards>
-1.2250427160302

> <r_i_glide_rmsd>
0.0341270183572565

> <r_lp_Energy>
54.494436

> <r_lp_tautomer_probability>
1

> <s_epik_cmdline>
J2VwaWtfcHl0aG9uJywgJy1waHQnLCAnMC4wJywgJy1waCcsICc3LjAnLCAnLXRuJywgJzgnLCAnLW1hJywgJzUwMCcsICctaW1hZScsICc8aW5maWxlLm1hZT4nLCAnLW9tYWUnLCAnPG91dGZpbGUubWFlPic=

> <s_epik_input>
W0NIM11DMShbT0hdKVtDSDJdW0NIMl1OKFtDSDJdW0NIMl0xKVtDSDJdW0NASF0oW09IXSlbQ0gyXW4ybmMoYyhjMjMpW0NIMl1OKFtDSDJdW0NIMl0zKVMoPU8pKD1PKVtDSDNdKS1jNFtjSF1bY0hdYyhDKEYpKEYpRiljKFtjSF00KVNbQ0gyXVtDSDJdTihbQ0gyXTUpW0NIMl1bQ0gyXVtDSDJdQzUoRilG

> <s_glide_core_atoms_lig>
21 20 19 33 34 35 36 18 17 16 14 15 11 12 13 40 39 38 37 41 42 43 44 10 9 45 8 5 4 3 6 7 2 1

> <s_glide_core_atoms_ref>
9 8 13 14 34 35 36 12 11 10 16 39 38 18 17 19 20 40 21 45 42 43 22 23 24 44 25 41 26 27 30 29 28 31

> <s_glide_core_constrain_type>
snapped_core_restrain

> <s_glide_core_smarts>
c1cc(C(F)(F)F)ccc1-c2nn(c(c23)CCN(C3)S(=O)(=O)C)CC(O)C[N](CC4)CCC4C

> <s_i_glide_gridfile>
glide-grid_1_zrqq

> <s_lp_Force_Field>
S-OPLS

> <s_lp_Variant>
CatS_153-1

> <s_m_Source_File>
glide-dock_SP_1_zrqq_gc4FEset_pv.maegz

> <s_m_Source_Path>
/gpfs/projects/drug_discovery/mergetbj/GRAILS/CatS/glide-dock_SP_1_zrqq_gc4FEset

> <s_m_entry_id>
809

> <s_m_entry_name>
CatS_FEset_compounds_D3R_GC4_answers.18

> <s_m_job_name>
glide-dock_SP_1_zrqq_gc4FEset

> <s_m_source_file>
ligprep_2.maegz

> <s_m_subgroup_title>
glide-dock_SP_1_zrqq_gc4FEset_pv

> <s_m_subgroupid>
glide-dock_SP_1_zrqq_gc4FEset_pv

$$$$
CatS_130
                    3D
 Schrodinger Suite 2023-3.
 96100  0  0  1  0            999 V2000
   -8.8002    7.3433  -13.0669 C   0  0  0  0  0  0
   -8.7270    8.8432  -13.1900 C   0  0  0  0  0  0
   -7.5862    9.2168  -14.1125 C   0  0  0  0  0  0
  -10.0118    9.5031  -13.7460 C   0  0  0  0  0  0
   -8.4494    9.4075  -11.8789 N   0  0  0  0  0  0
   -8.6699    9.0056  -10.5967 C   0  0  0  0  0  0
   -9.1009    7.9182  -10.2363 O   0  0  0  0  0  0
   -8.2625    9.9081   -9.7029 N   0  0  0  0  0  0
   -7.9749   11.2964  -10.1380 C   0  0  0  0  0  0
   -6.4839   11.6382  -10.1046 C   0  0  0  0  0  0
   -5.7977   10.9356   -8.9636 C   0  0  0  0  0  0
   -6.4065   10.0634   -8.1437 C   0  0  0  0  0  0
   -5.3519    9.6243   -7.2665 C   0  0  0  0  0  0
   -4.1990   10.2151   -7.5656 N   0  0  0  0  0  0
   -4.4552   11.0080   -8.6318 N   0  0  0  0  0  0
   -3.3746   11.7215   -9.2927 C   0  0  0  0  0  0
   -3.1238   13.1513   -8.7742 C   0  0  2  0  0  0
   -2.6176   13.2037   -7.3078 C   0  0  0  0  0  0
   -2.4297   14.5807   -6.7855 N   0  3  0  0  0  0
   -1.5066   15.4239   -7.6079 C   0  0  0  0  0  0
   -1.3985   16.8596   -7.0366 C   0  0  0  0  0  0
   -0.9819   16.8480   -5.5638 C   0  0  0  0  0  0
   -1.9666   15.9840   -4.7525 C   0  0  0  0  0  0
   -2.0646   14.5616   -5.3365 C   0  0  0  0  0  0
   -4.2982   13.9279   -8.9143 O   0  0  0  0  0  0
   -5.4307    8.6681   -6.1668 C   0  0  0  0  0  0
   -4.3938    7.7437   -5.8885 C   0  0  0  0  0  0
   -4.5575    6.7702   -4.8882 C   0  0  0  0  0  0
   -5.7566    6.6923   -4.1334 C   0  0  0  0  0  0
   -6.7614    7.6540   -4.3688 C   0  0  0  0  0  0
   -6.5898    8.6269   -5.3692 C   0  0  0  0  0  0
   -8.2900    7.6036   -3.4580 S   0  0  0  0  0  0
   -8.8925    9.2934   -3.1603 C   0  0  0  0  0  0
   -7.9335   10.0785   -2.2536 C   0  0  0  0  0  0
   -8.3527   11.4866   -2.0078 N   0  3  1  0  0  0
   -9.5277   11.6204   -1.0979 C   0  0  0  0  0  0
   -9.9487   13.0883   -0.9117 C   0  0  0  0  0  0
   -8.7757   13.9433   -0.4169 C   0  0  2  0  0  0
   -7.5673   13.7717   -1.3399 C   0  0  0  0  0  0
   -7.1923   12.2871   -1.5129 C   0  0  0  0  0  0
   -8.4446   13.5888    0.8251 F   0  0  0  0  0  0
   -5.9390    5.5704   -3.1211 C   0  0  0  0  0  0
   -4.9074    4.7355   -3.1204 F   0  0  0  0  0  0
   -6.0675    6.0684   -1.8884 F   0  0  0  0  0  0
   -7.0109    4.8450   -3.4212 F   0  0  0  0  0  0
   -7.8677    9.6905   -8.2821 C   0  0  0  0  0  0
   -9.2698    6.7568  -13.8125 H   0  0  0  0  0  0
   -9.5373    7.1363  -12.3304 H   0  0  0  0  0  0
   -7.7686    6.9472  -12.8357 H   0  0  0  0  0  0
   -7.4830   10.2963  -14.1603 H   0  0  0  0  0  0
   -6.6591    8.7381  -13.8390 H   0  0  0  0  0  0
   -7.7670    8.8890  -15.1279 H   0  0  0  0  0  0
   -9.8284   10.5234  -14.0665 H   0  0  0  0  0  0
  -10.4703    8.9790  -14.5910 H   0  0  0  0  0  0
  -10.7626    9.6028  -12.9718 H   0  0  0  0  0  0
   -8.0489   10.3346  -11.9195 H   0  0  0  0  0  0
   -8.4645   11.6314  -11.0444 H   0  0  0  0  0  0
   -8.4421   11.9115   -9.3678 H   0  0  0  0  0  0
   -6.0232   11.3087  -11.0436 H   0  0  0  0  0  0
   -6.3439   12.7128  -10.0598 H   0  0  0  0  0  0
   -2.4617   11.1246   -9.1907 H   0  0  0  0  0  0
   -3.5914   11.7526  -10.3597 H   0  0  0  0  0  0
   -2.3679   13.5840   -9.4282 H   0  0  0  0  0  0
   -3.3326   12.6944   -6.6668 H   0  0  0  0  0  0
   -1.6799   12.6605   -7.2225 H   0  0  0  0  0  0
   -0.5210   14.9796   -7.6504 H   0  0  0  0  0  0
   -1.8571   15.5270   -8.6251 H   0  0  0  0  0  0
   -0.6710   17.4361   -7.6210 H   0  0  0  0  0  0
   -2.3500   17.3745   -7.1530 H   0  0  0  0  0  0
   -0.9522   17.8613   -5.1663 H   0  0  0  0  0  0
    0.0279   16.4458   -5.4647 H   0  0  0  0  0  0
   -2.9538   16.4388   -4.7538 H   0  0  0  0  0  0
   -1.6545   15.9360   -3.7079 H   0  0  0  0  0  0
   -2.7921   13.9846   -4.7699 H   0  0  0  0  0  0
   -1.1076   14.0553   -5.2026 H   0  0  0  0  0  0
   -5.0442   13.3886   -8.7145 H   0  0  0  0  0  0
   -3.4917    7.7551   -6.4849 H   0  0  0  0  0  0
   -3.7570    6.0618   -4.7207 H   0  0  0  0  0  0
   -7.3897    9.3373   -5.5598 H   0  0  0  0  0  0
   -9.0513    9.7970   -4.1118 H   0  0  0  0  0  0
   -9.8622    9.1970   -2.6803 H   0  0  0  0  0  0
   -7.7805    9.5578   -1.3060 H   0  0  0  0  0  0
   -6.9581   10.1000   -2.7392 H   0  0  0  0  0  0
  -10.3763   11.0587   -1.4874 H   0  0  0  0  0  0
   -9.2975   11.1794   -0.1274 H   0  0  0  0  0  0
  -10.3200   13.4891   -1.8525 H   0  0  0  0  0  0
  -10.7830   13.1549   -0.2169 H   0  0  0  0  0  0
   -9.0688   14.9926   -0.3532 H   0  0  0  0  0  0
   -6.7126   14.3097   -0.9137 H   0  0  0  0  0  0
   -7.7740   14.2192   -2.3107 H   0  0  0  0  0  0
   -6.8715   11.8611   -0.5699 H   0  0  0  0  0  0
   -6.3107   12.1576   -2.1111 H   0  0  0  0  0  0
   -8.4909   10.2991   -7.6372 H   0  0  0  0  0  0
   -8.0503    8.6595   -7.9876 H   0  0  0  0  0  0
   -3.3335   15.0263   -6.8473 H   0  0  0  0  0  0
   -8.6221   11.8741   -2.9017 H   0  0  0  0  0  0
  1  2  1  0  0  0
  1 47  1  0  0  0
  1 48  1  0  0  0
  1 49  1  0  0  0
  2  3  1  0  0  0
  2  4  1  0  0  0
  2  5  1  0  0  0
  3 50  1  0  0  0
  3 51  1  0  0  0
  3 52  1  0  0  0
  4 53  1  0  0  0
  4 54  1  0  0  0
  4 55  1  0  0  0
  5  6  1  0  0  0
  5 56  1  0  0  0
  6  7  2  0  0  0
  6  8  1  0  0  0
  8 46  1  0  0  0
  8  9  1  0  0  0
  9 10  1  0  0  0
  9 57  1  0  0  0
  9 58  1  0  0  0
 10 11  1  0  0  0
 10 59  1  0  0  0
 10 60  1  0  0  0
 11 15  1  0  0  0
 11 12  2  0  0  0
 12 13  1  0  0  0
 12 46  1  0  0  0
 13 14  2  0  0  0
 13 26  1  0  0  0
 14 15  1  0  0  0
 15 16  1  0  0  0
 16 17  1  0  0  0
 16 61  1  0  0  0
 16 62  1  0  0  0
 17 18  1  0  0  0
 17 25  1  0  0  0
 17 63  1  0  0  0
 18 19  1  0  0  0
 18 64  1  0  0  0
 18 65  1  0  0  0
 19 24  1  0  0  0
 19 20  1  0  0  0
 19 95  1  0  0  0
 20 21  1  0  0  0
 20 66  1  0  0  0
 20 67  1  0  0  0
 21 22  1  0  0  0
 21 68  1  0  0  0
 21 69  1  0  0  0
 22 23  1  0  0  0
 22 70  1  0  0  0
 22 71  1  0  0  0
 23 24  1  0  0  0
 23 72  1  0  0  0
 23 73  1  0  0  0
 24 74  1  0  0  0
 24 75  1  0  0  0
 25 76  1  0  0  0
 26 31  1  0  0  0
 26 27  2  0  0  0
 27 28  1  0  0  0
 27 77  1  0  0  0
 28 29  2  0  0  0
 28 78  1  0  0  0
 29 30  1  0  0  0
 29 42  1  0  0  0
 30 31  2  0  0  0
 30 32  1  0  0  0
 31 79  1  0  0  0
 32 33  1  0  0  0
 33 34  1  0  0  0
 33 80  1  0  0  0
 33 81  1  0  0  0
 34 35  1  0  0  0
 34 82  1  0  0  0
 34 83  1  0  0  0
 35 40  1  0  0  0
 35 36  1  0  0  0
 35 96  1  0  0  0
 36 37  1  0  0  0
 36 84  1  0  0  0
 36 85  1  0  0  0
 37 38  1  0  0  0
 37 86  1  0  0  0
 37 87  1  0  0  0
 38 39  1  0  0  0
 38 41  1  0  0  0
 38 88  1  0  0  0
 39 40  1  0  0  0
 39 89  1  0  0  0
 39 90  1  0  0  0
 40 91  1  0  0  0
 40 92  1  0  0  0
 42 43  1  0  0  0
 42 44  1  0  0  0
 42 45  1  0  0  0
 46 93  1  0  0  0
 46 94  1  0  0  0
M  CHG  2  19   1  35   1
M  END
> <i_epik_Tot_Q>
2

> <i_epik_Tot_abs_Q>
2

> <i_f3d_flags>
0

> <i_i_glide_confnum>
760

> <i_i_glide_lignum>
13

> <i_i_glide_posenum>
91

> <i_i_glide_rotatable_bonds>
14

> <i_lp_mmshare_version>
63125

> <i_m_Source_File_Index>
11

> <i_m_source_file_index>
11

> <b_lp_Chiralities_Consistent>
1

> <b_m_subgroup_collapsed>
0

> <r_canvas_Affinity>
0.98

> <r_epik_Charging_Adjusted_Penalty>
0.135119144620326

> <r_epik_Ionization_Penalty>
  0.0711

> <r_epik_Ionization_Penalty_Charging>
  0.0709

> <r_epik_Ionization_Penalty_Neutral>
  0.0002

> <r_epik_State_Penalty>
  0.0642

> <r_i_docking_score>
-7.39360968479459

> <r_i_glide_ecoul>
-4.55784940719604

> <r_i_glide_eff_state_penalty>
0.0642

> <r_i_glide_einternal>
6.29412746429443

> <r_i_glide_emodel>
-55.3811985391356

> <r_i_glide_energy>
-44.7104716300964

> <r_i_glide_erotb>
0.406642492745402

> <r_i_glide_esite>
0

> <r_i_glide_evdw>
-40.1526222229004

> <r_i_glide_gscore>
-7.45780968479459

> <r_i_glide_hbond>
0

> <r_i_glide_ligand_efficiency>
-0.160730645321621

> <r_i_glide_ligand_efficiency_ln>
-1.53119875295989

> <r_i_glide_ligand_efficiency_sa>
-0.575905595791676

> <r_i_glide_lipo>
-3.55307418674446

> <r_i_glide_metal>
0

> <r_i_glide_rewards>
-1.6200694685711

> <r_i_glide_rmsd>
0.0458079468308925

> <r_lp_Energy>
59.675732

> <r_lp_tautomer_probability>
1

> <s_epik_cmdline>
J2VwaWtfcHl0aG9uJywgJy1waHQnLCAnMC4wJywgJy1waCcsICc3LjAnLCAnLXRuJywgJzgnLCAnLW1hJywgJzUwMCcsICctaW1hZScsICc8aW5maWxlLm1hZT4nLCAnLW9tYWUnLCAnPG91dGZpbGUubWFlPic=

> <s_epik_input>
W0NIMl0xW0NIMl1bQ0gyXVtDSDJdW0NIMl1OMVtDSDJdW0NASF0oW09IXSlbQ0gyXW4ybmMoYyhjMjMpW0NIMl1OKFtDSDJdW0NIMl0zKUMoPU8pW05IXUMoW0NIM10pKFtDSDNdKVtDSDNdKS1jNFtjSF1bY0hdYyhDKEYpKEYpRiljKFtjSF00KVNbQ0gyXVtDSDJdTjVbQ0gyXVtDSDJdW0NIXShGKVtDSDJdW0NIMl01

> <s_glide_core_atoms_lig>
31 30 29 42 43 44 45 28 27 26 13 14 15 11 12 10 9 8 46 16 17 25 18 19 24 23 22 21 20

> <s_glide_core_atoms_ref>
9 8 13 14 34 35 36 12 11 10 16 39 38 18 17 19 20 40 21 23 24 44 25 41 26 27 28 29 30

> <s_glide_core_constrain_type>
snapped_core_restrain

> <s_glide_core_smarts>
c1cc(C(F)(F)F)ccc1-c2nn(c(c23)CCNC3)CC(O)C[N]4CCCCC4

> <s_i_glide_gridfile>
glide-grid_1_zrqq

> <s_lp_Force_Field>
S-OPLS

> <s_lp_Variant>
CatS_130-1

> <s_m_Source_File>
glide-dock_SP_1_zrqq_gc4FEset_pv.maegz

> <s_m_Source_Path>
/gpfs/projects/drug_discovery/mergetbj/GRAILS/CatS/glide-dock_SP_1_zrqq_gc4FEset

> <s_m_entry_id>
810

> <s_m_entry_name>
CatS_FEset_compounds_D3R_GC4_answers.11

> <s_m_job_name>
glide-dock_SP_1_zrqq_gc4FEset

> <s_m_source_file>
ligprep_2.maegz

> <s_m_subgroup_title>
glide-dock_SP_1_zrqq_gc4FEset_pv

> <s_m_subgroupid>
glide-dock_SP_1_zrqq_gc4FEset_pv

$$$$
CatS_141
                    3D
 Schrodinger Suite 2023-3.
 92 97  0  0  1  0            999 V2000
   -4.3915    7.7389   -5.8851 C   0  0  0  0  0  0
   -4.5422    6.7755   -4.8685 C   0  0  0  0  0  0
   -5.7366    6.6989   -4.1201 C   0  0  0  0  0  0
   -6.7606    7.6533   -4.3692 C   0  0  0  0  0  0
   -6.6098    8.5957   -5.4095 C   0  0  0  0  0  0
   -5.4351    8.6470   -6.1771 C   0  0  0  0  0  0
   -5.3579    9.6073   -7.2791 C   0  0  0  0  0  0
   -6.3992   10.0336   -8.1537 C   0  0  0  0  0  0
   -5.7977   10.9318   -8.9822 C   0  0  0  0  0  0
   -4.4623   10.9949   -8.6349 N   0  0  0  0  0  0
   -4.2076   10.2081   -7.5684 N   0  0  0  0  0  0
   -3.3656   11.6952   -9.2965 C   0  0  0  0  0  0
   -3.0982   13.1295   -8.7954 C   0  0  2  0  0  0
   -2.6264   13.2092   -7.3224 C   0  0  0  0  0  0
   -2.4232   14.5906   -6.7954 N   0  3  0  0  0  0
   -1.4736   15.4168   -7.6111 C   0  0  0  0  0  0
   -1.3621   16.8440   -7.0540 C   0  0  0  0  0  0
   -0.9821   16.8489   -5.5668 C   0  0  0  0  0  0
   -1.9825   16.0009   -4.7721 C   0  0  0  0  0  0
   -2.0561   14.5798   -5.3450 C   0  0  0  0  0  0
   -4.2638   13.9077   -8.9659 O   0  0  0  0  0  0
   -6.4758   11.6252  -10.1239 C   0  0  0  0  0  0
   -7.9921   11.2924  -10.1389 C   0  0  0  0  0  0
   -8.2606    9.9112   -9.7051 N   0  0  0  0  0  0
   -7.8418    9.6159   -8.3062 C   0  0  0  0  0  0
   -8.7511    9.0015  -10.5849 C   0  0  0  0  0  0
   -8.9093    7.8276  -10.2456 O   0  0  0  0  0  0
   -9.1665    9.4270  -12.0427 C   0  0  0  0  0  0
   -8.1167    9.8607  -13.1212 C   0  0  0  0  0  0
   -7.9685    8.3815  -13.4783 C   0  0  0  0  0  0
   -9.3989    8.2521  -13.0196 C   0  0  0  0  0  0
   -8.2716    7.6146   -3.4694 S   0  0  0  0  0  0
   -8.1991    8.9946   -2.2988 C   0  0  0  0  0  0
   -8.2896   10.3641   -3.0024 C   0  0  0  0  0  0
   -8.9797   11.4129   -2.2041 N   0  3  1  0  0  0
   -8.4283   11.6053   -0.8367 C   0  0  0  0  0  0
   -9.2554   12.6182   -0.0306 C   0  0  0  0  0  0
   -9.3790   13.9498   -0.7740 C   0  0  1  0  0  0
   -9.9281   13.7195   -2.1877 C   0  0  0  0  0  0
   -9.0731   12.6965   -2.9509 C   0  0  0  0  0  0
  -10.2098   14.7425   -0.1060 F   0  0  0  0  0  0
   -5.9201    5.5805   -3.0982 C   0  0  0  0  0  0
   -4.8837    4.7440   -3.0949 F   0  0  0  0  0  0
   -6.0652    6.0768   -1.8664 F   0  0  0  0  0  0
   -6.9988    4.8679   -3.4220 F   0  0  0  0  0  0
   -3.4852    7.7545   -6.4719 H   0  0  0  0  0  0
   -3.7407    6.0758   -4.6969 H   0  0  0  0  0  0
   -7.4153    9.2814   -5.6193 H   0  0  0  0  0  0
   -2.4582   11.0965   -9.1936 H   0  0  0  0  0  0
   -3.5819   11.7184  -10.3633 H   0  0  0  0  0  0
   -2.3280   13.5384   -9.4478 H   0  0  0  0  0  0
   -3.3586   12.7142   -6.6820 H   0  0  0  0  0  0
   -1.7015   12.6450   -7.2082 H   0  0  0  0  0  0
   -0.4937   14.9384   -7.6290 H   0  0  0  0  0  0
   -1.8113   15.4923   -8.6417 H   0  0  0  0  0  0
   -0.6219   17.4031   -7.6242 H   0  0  0  0  0  0
   -2.3061   17.3677   -7.1946 H   0  0  0  0  0  0
   -0.9657   17.8695   -5.1822 H   0  0  0  0  0  0
    0.0258   16.4539   -5.4365 H   0  0  0  0  0  0
   -2.9662   16.4681   -4.7962 H   0  0  0  0  0  0
   -1.6858   15.9661   -3.7276 H   0  0  0  0  0  0
   -2.7923   14.0007   -4.7828 H   0  0  0  0  0  0
   -1.0996   14.0768   -5.2180 H   0  0  0  0  0  0
   -4.9693   13.5228   -8.4574 H   0  0  0  0  0  0
   -6.0178   11.2915  -11.0572 H   0  0  0  0  0  0
   -6.3373   12.7052  -10.0733 H   0  0  0  0  0  0
   -8.4391   11.6038  -11.0821 H   0  0  0  0  0  0
   -8.4759   11.9306   -9.3937 H   0  0  0  0  0  0
   -8.4884   10.1757   -7.6298 H   0  0  0  0  0  0
   -7.9722    8.5651   -8.0603 H   0  0  0  0  0  0
  -10.0192   10.1050  -12.0144 H   0  0  0  0  0  0
   -7.1929   10.3700  -12.8665 H   0  0  0  0  0  0
   -8.5933   10.4246  -13.9274 H   0  0  0  0  0  0
   -7.2987    7.8921  -12.7879 H   0  0  0  0  0  0
   -7.8017    8.0550  -14.5091 H   0  0  0  0  0  0
  -10.0695    8.5209  -13.8432 H   0  0  0  0  0  0
   -9.6704    7.2896  -12.5883 H   0  0  0  0  0  0
   -9.0316    8.8453   -1.6092 H   0  0  0  0  0  0
   -7.2785    8.9083   -1.7159 H   0  0  0  0  0  0
   -7.2890   10.6899   -3.2881 H   0  0  0  0  0  0
   -8.8593   10.2405   -3.9271 H   0  0  0  0  0  0
   -8.4704   10.6565   -0.3052 H   0  0  0  0  0  0
   -7.3820   11.9157   -0.9036 H   0  0  0  0  0  0
  -10.2459   12.2093    0.1735 H   0  0  0  0  0  0
   -8.7828   12.7784    0.9368 H   0  0  0  0  0  0
   -8.4157   14.4626   -0.8096 H   0  0  0  0  0  0
   -9.9613   14.6619   -2.7316 H   0  0  0  0  0  0
  -10.9606   13.3701   -2.1358 H   0  0  0  0  0  0
   -8.0712   13.0952   -3.1114 H   0  0  0  0  0  0
   -9.5069   12.5252   -3.9370 H   0  0  0  0  0  0
   -3.3224   15.0422   -6.8775 H   0  0  0  0  0  0
   -9.9266   11.0912   -2.0802 H   0  0  0  0  0  0
  1  6  1  0  0  0
  1  2  2  0  0  0
  1 46  1  0  0  0
  2  3  1  0  0  0
  2 47  1  0  0  0
  3  4  2  0  0  0
  3 42  1  0  0  0
  4  5  1  0  0  0
  4 32  1  0  0  0
  5  6  2  0  0  0
  5 48  1  0  0  0
  6  7  1  0  0  0
  7 11  2  0  0  0
  7  8  1  0  0  0
  8 25  1  0  0  0
  8  9  2  0  0  0
  9 10  1  0  0  0
  9 22  1  0  0  0
 10 11  1  0  0  0
 10 12  1  0  0  0
 12 13  1  0  0  0
 12 49  1  0  0  0
 12 50  1  0  0  0
 13 14  1  0  0  0
 13 21  1  0  0  0
 13 51  1  0  0  0
 14 15  1  0  0  0
 14 52  1  0  0  0
 14 53  1  0  0  0
 15 20  1  0  0  0
 15 16  1  0  0  0
 15 91  1  0  0  0
 16 17  1  0  0  0
 16 54  1  0  0  0
 16 55  1  0  0  0
 17 18  1  0  0  0
 17 56  1  0  0  0
 17 57  1  0  0  0
 18 19  1  0  0  0
 18 58  1  0  0  0
 18 59  1  0  0  0
 19 20  1  0  0  0
 19 60  1  0  0  0
 19 61  1  0  0  0
 20 62  1  0  0  0
 20 63  1  0  0  0
 21 64  1  0  0  0
 22 23  1  0  0  0
 22 65  1  0  0  0
 22 66  1  0  0  0
 23 24  1  0  0  0
 23 67  1  0  0  0
 23 68  1  0  0  0
 24 25  1  0  0  0
 24 26  1  0  0  0
 25 69  1  0  0  0
 25 70  1  0  0  0
 26 27  2  0  0  0
 26 28  1  0  0  0
 28 31  1  0  0  0
 28 29  1  0  0  0
 28 71  1  0  0  0
 29 30  1  0  0  0
 29 72  1  0  0  0
 29 73  1  0  0  0
 30 31  1  0  0  0
 30 74  1  0  0  0
 30 75  1  0  0  0
 31 76  1  0  0  0
 31 77  1  0  0  0
 32 33  1  0  0  0
 33 34  1  0  0  0
 33 78  1  0  0  0
 33 79  1  0  0  0
 34 35  1  0  0  0
 34 80  1  0  0  0
 34 81  1  0  0  0
 35 40  1  0  0  0
 35 36  1  0  0  0
 35 92  1  0  0  0
 36 37  1  0  0  0
 36 82  1  0  0  0
 36 83  1  0  0  0
 37 38  1  0  0  0
 37 84  1  0  0  0
 37 85  1  0  0  0
 38 39  1  0  0  0
 38 41  1  0  0  0
 38 86  1  0  0  0
 39 40  1  0  0  0
 39 87  1  0  0  0
 39 88  1  0  0  0
 40 89  1  0  0  0
 40 90  1  0  0  0
 42 43  1  0  0  0
 42 44  1  0  0  0
 42 45  1  0  0  0
M  CHG  2  15   1  35   1
M  END
> <i_epik_Tot_Q>
2

> <i_epik_Tot_abs_Q>
2

> <i_f3d_flags>
0

> <i_i_glide_confnum>
3715

> <i_i_glide_lignum>
17

> <i_i_glide_posenum>
146

> <i_i_glide_rotatable_bonds>
13

> <i_lp_mmshare_version>
63125

> <i_m_Source_File_Index>
15

> <i_m_source_file_index>
15

> <b_lp_Chiralities_Consistent>
1

> <b_m_subgroup_collapsed>
0

> <r_canvas_Affinity>
0.61

> <r_epik_Charging_Adjusted_Penalty>
0.135119144620326

> <r_epik_Ionization_Penalty>
  0.0709

> <r_epik_Ionization_Penalty_Charging>
  0.0709

> <r_epik_Ionization_Penalty_Neutral>
  0.0000

> <r_epik_State_Penalty>
  0.0642

> <r_i_docking_score>
-6.68220999255939

> <r_i_glide_ecoul>
-4.92671728134155

> <r_i_glide_eff_state_penalty>
0.0642

> <r_i_glide_einternal>
7.47604417800903

> <r_i_glide_emodel>
-46.8755497316422

> <r_i_glide_energy>
-40.2296271324158

> <r_i_glide_erotb>
0.443592632589538

> <r_i_glide_esite>
0

> <r_i_glide_evdw>
-35.3029098510742

> <r_i_glide_gscore>
-6.74640999255939

> <r_i_glide_hbond>
-0.0159237830663277

> <r_i_glide_ligand_efficiency>
-0.148493555390209

> <r_i_glide_ligand_efficiency_ln>
-1.39019746170668

> <r_i_glide_ligand_efficiency_sa>
-0.528175732257162

> <r_i_glide_lipo>
-3.34682416497395

> <r_i_glide_metal>
0

> <r_i_glide_rewards>
-1.3231015923537

> <r_i_glide_rmsd>
0.0421270325437788

> <r_lp_Energy>
77.968351

> <r_lp_tautomer_probability>
1

> <s_epik_cmdline>
J2VwaWtfcHl0aG9uJywgJy1waHQnLCAnMC4wJywgJy1waCcsICc3LjAnLCAnLXRuJywgJzgnLCAnLW1hJywgJzUwMCcsICctaW1hZScsICc8aW5maWxlLm1hZT4nLCAnLW9tYWUnLCAnPG91dGZpbGUubWFlPic=

> <s_epik_input>
W0NIMl0xW0NIMl1bQ0hdKEYpW0NIMl1bQ0gyXU4xW0NIMl1bQ0gyXVNjMltjSF1jKFtjSF1bY0hdYzJDKEYpKEYpRiktYzNubihjKGMzNClbQ0gyXVtDSDJdTihbQ0gyXTQpQyg9TylbQ0hdNVtDSDJdW0NIMl1bQ0gyXTUpW0NIMl1bQ0BASF0oW09IXSlbQ0gyXU42W0NIMl1bQ0gyXVtDSDJdW0NIMl1bQ0gyXTY=

> <s_glide_core_atoms_lig>
5 4 3 42 43 44 45 2 1 6 7 11 10 9 8 22 23 24 25 12 13 21 14 15 20 19 18 17 16

> <s_glide_core_atoms_ref>
9 8 13 14 34 35 36 12 11 10 16 39 38 18 17 19 20 40 21 23 24 44 25 41 26 27 28 29 30

> <s_glide_core_constrain_type>
snapped_core_restrain

> <s_glide_core_smarts>
c1cc(C(F)(F)F)ccc1-c2nn(c(c23)CCNC3)CC(O)C[N]4CCCCC4

> <s_i_glide_gridfile>
glide-grid_1_zrqq

> <s_lp_Force_Field>
S-OPLS

> <s_lp_Variant>
CatS_141-1

> <s_m_Source_File>
glide-dock_SP_1_zrqq_gc4FEset_pv.maegz

> <s_m_Source_Path>
/gpfs/projects/drug_discovery/mergetbj/GRAILS/CatS/glide-dock_SP_1_zrqq_gc4FEset

> <s_m_entry_id>
811

> <s_m_entry_name>
CatS_FEset_compounds_D3R_GC4_answers.15

> <s_m_job_name>
glide-dock_SP_1_zrqq_gc4FEset

> <s_m_source_file>
ligprep_2.maegz

> <s_m_subgroup_title>
glide-dock_SP_1_zrqq_gc4FEset_pv

> <s_m_subgroupid>
glide-dock_SP_1_zrqq_gc4FEset_pv

$$$$
CatS_162
                    3D
 Schrodinger Suite 2023-3.
 95100  0  0  1  0            999 V2000
   -4.3904    7.7428   -5.8824 C   0  0  0  0  0  0
   -4.5428    6.7764   -4.8744 C   0  0  0  0  0  0
   -5.7219    6.7209   -4.0935 C   0  0  0  0  0  0
   -6.7338    7.6899   -4.3147 C   0  0  0  0  0  0
   -6.5993    8.6218   -5.3638 C   0  0  0  0  0  0
   -5.4368    8.6555   -6.1609 C   0  0  0  0  0  0
   -5.3605    9.6189   -7.2697 C   0  0  0  0  0  0
   -6.4015   10.0457   -8.1518 C   0  0  0  0  0  0
   -5.8077   10.9542   -8.9759 C   0  0  0  0  0  0
   -4.4723   11.0139   -8.6289 N   0  0  0  0  0  0
   -4.2142   10.2274   -7.5564 N   0  0  0  0  0  0
   -3.3825   11.7165   -9.2945 C   0  0  0  0  0  0
   -3.1221   13.1482   -8.7764 C   0  0  2  0  0  0
   -2.6305   13.2090   -7.3126 C   0  0  0  0  0  0
   -2.4262   14.5877   -6.7888 N   0  3  0  0  0  0
   -1.5078   15.4337   -7.6036 C   0  0  0  0  0  0
   -1.3735   16.8595   -7.0292 C   0  0  0  0  0  0
   -0.9623   16.8435   -5.5484 C   0  0  0  0  0  0
   -1.9645   15.9909   -4.7596 C   0  0  0  0  0  0
   -2.0582   14.5732   -5.3459 C   0  0  0  0  0  0
   -4.2939   13.9251   -8.9122 O   0  0  0  0  0  0
   -6.4946   11.6849  -10.1004 C   0  0  0  0  0  0
   -8.0043   11.3105  -10.1397 C   0  0  0  0  0  0
   -8.2589    9.9188   -9.6886 N   0  0  0  0  0  0
   -7.8437    9.6252   -8.3061 C   0  0  0  0  0  0
   -8.5786    8.9768  -10.6043 C   0  0  0  0  0  0
   -8.8707    7.8282  -10.2592 O   0  0  0  0  0  0
   -8.7199    9.3930  -11.9037 N   0  0  0  0  0  0
   -7.6704    9.8375  -12.8073 C   0  0  0  0  0  0
   -8.1543   10.8089  -13.8853 C   0  0  0  0  0  0
   -8.9779   10.0422  -14.7313 O   0  0  0  0  0  0
  -10.0766    9.5417  -14.0026 C   0  0  0  0  0  0
   -9.6701    8.7362  -12.7413 C   0  0  0  0  0  0
   -8.2094    7.7206   -3.3288 S   0  0  0  0  0  0
   -8.7730    9.4455   -3.1712 C   0  0  0  0  0  0
   -7.6769   10.3384   -2.5591 C   0  0  0  0  0  0
   -8.1117   11.6988   -2.1490 N   0  3  2  0  0  0
   -8.9467   11.7268   -0.9205 C   0  0  0  0  0  0
   -9.1233   13.1674   -0.4110 C   0  0  0  0  0  0
   -9.7011   14.0743   -1.5060 C   0  0  1  0  0  0
   -8.8644   13.9735   -2.7925 C   0  0  0  0  0  0
   -8.7037   12.5104   -3.2417 C   0  0  0  0  0  0
  -10.9562   13.7123   -1.7673 F   0  0  0  0  0  0
   -5.9065    5.5982   -3.0718 C   0  0  0  0  0  0
   -4.8863    4.7397   -3.0995 F   0  0  0  0  0  0
   -6.0271    6.0785   -1.8301 F   0  0  0  0  0  0
   -6.9994    4.9076   -3.3874 F   0  0  0  0  0  0
   -3.4910    7.7549   -6.4806 H   0  0  0  0  0  0
   -3.7493    6.0592   -4.7166 H   0  0  0  0  0  0
   -7.3950    9.3212   -5.5647 H   0  0  0  0  0  0
   -2.4753   11.1166   -9.2000 H   0  0  0  0  0  0
   -3.6055   11.7509  -10.3627 H   0  0  0  0  0  0
   -2.3624   13.5740   -9.4308 H   0  0  0  0  0  0
   -3.3526   12.7059   -6.6712 H   0  0  0  0  0  0
   -1.6977   12.6496   -7.2203 H   0  0  0  0  0  0
   -0.5277   14.9567   -7.6518 H   0  0  0  0  0  0
   -1.8646   15.5257   -8.6285 H   0  0  0  0  0  0
   -0.6390   17.4218   -7.6080 H   0  0  0  0  0  0
   -2.3212   17.3866   -7.1365 H   0  0  0  0  0  0
   -0.9350   17.8594   -5.1527 H   0  0  0  0  0  0
    0.0423   16.4350   -5.4409 H   0  0  0  0  0  0
   -2.9483   16.4623   -4.7791 H   0  0  0  0  0  0
   -1.6706   15.9416   -3.7101 H   0  0  0  0  0  0
   -2.7964   13.9994   -4.7855 H   0  0  0  0  0  0
   -1.1027   14.0596   -5.2201 H   0  0  0  0  0  0
   -5.0108   13.4689   -8.4974 H   0  0  0  0  0  0
   -5.9453   11.5189  -11.0175 H   0  0  0  0  0  0
   -6.4241   12.7583   -9.9356 H   0  0  0  0  0  0
   -8.4947   11.6517  -11.0508 H   0  0  0  0  0  0
   -8.4945   11.9200   -9.3777 H   0  0  0  0  0  0
   -8.4923   10.1773   -7.6224 H   0  0  0  0  0  0
   -7.9761    8.5714   -8.0574 H   0  0  0  0  0  0
   -7.2708    8.9542  -13.3041 H   0  0  0  0  0  0
   -6.8703   10.3365  -12.3025 H   0  0  0  0  0  0
   -8.6844   11.6677  -13.4699 H   0  0  0  0  0  0
   -7.3145   11.1891  -14.4679 H   0  0  0  0  0  0
  -10.7146   10.3798  -13.7152 H   0  0  0  0  0  0
  -10.6705    8.9265  -14.6776 H   0  0  0  0  0  0
  -10.4703    8.7364  -12.0300 H   0  0  0  0  0  0
   -9.3434    7.7216  -12.9793 H   0  0  0  0  0  0
   -9.0932    9.8144   -4.1449 H   0  0  0  0  0  0
   -9.6579    9.4336   -2.5341 H   0  0  0  0  0  0
   -7.2708    9.8357   -1.6899 H   0  0  0  0  0  0
   -6.8467   10.4391   -3.2566 H   0  0  0  0  0  0
   -9.9218   11.2787   -1.1177 H   0  0  0  0  0  0
   -8.4750   11.1364   -0.1410 H   0  0  0  0  0  0
   -9.7739   13.1743    0.4671 H   0  0  0  0  0  0
   -8.1589   13.5585   -0.0836 H   0  0  0  0  0  0
   -9.7531   15.1076   -1.1621 H   0  0  0  0  0  0
   -7.8824   14.4147   -2.6126 H   0  0  0  0  0  0
   -9.3251   14.5621   -3.5867 H   0  0  0  0  0  0
   -8.0711   12.4606   -4.1278 H   0  0  0  0  0  0
   -9.6740   12.0994   -3.5283 H   0  0  0  0  0  0
   -3.3302   15.0351   -6.8518 H   0  0  0  0  0  0
   -7.2531   12.1693   -1.8939 H   0  0  0  0  0  0
  1  6  1  0  0  0
  1  2  2  0  0  0
  1 48  1  0  0  0
  2  3  1  0  0  0
  2 49  1  0  0  0
  3  4  2  0  0  0
  3 44  1  0  0  0
  4  5  1  0  0  0
  4 34  1  0  0  0
  5  6  2  0  0  0
  5 50  1  0  0  0
  6  7  1  0  0  0
  7 11  2  0  0  0
  7  8  1  0  0  0
  8 25  1  0  0  0
  8  9  2  0  0  0
  9 10  1  0  0  0
  9 22  1  0  0  0
 10 11  1  0  0  0
 10 12  1  0  0  0
 12 13  1  0  0  0
 12 51  1  0  0  0
 12 52  1  0  0  0
 13 14  1  0  0  0
 13 21  1  0  0  0
 13 53  1  0  0  0
 14 15  1  0  0  0
 14 54  1  0  0  0
 14 55  1  0  0  0
 15 20  1  0  0  0
 15 16  1  0  0  0
 15 94  1  0  0  0
 16 17  1  0  0  0
 16 56  1  0  0  0
 16 57  1  0  0  0
 17 18  1  0  0  0
 17 58  1  0  0  0
 17 59  1  0  0  0
 18 19  1  0  0  0
 18 60  1  0  0  0
 18 61  1  0  0  0
 19 20  1  0  0  0
 19 62  1  0  0  0
 19 63  1  0  0  0
 20 64  1  0  0  0
 20 65  1  0  0  0
 21 66  1  0  0  0
 22 23  1  0  0  0
 22 67  1  0  0  0
 22 68  1  0  0  0
 23 24  1  0  0  0
 23 69  1  0  0  0
 23 70  1  0  0  0
 24 25  1  0  0  0
 24 26  1  0  0  0
 25 71  1  0  0  0
 25 72  1  0  0  0
 26 27  2  0  0  0
 26 28  1  0  0  0
 28 33  1  0  0  0
 28 29  1  0  0  0
 29 30  1  0  0  0
 29 73  1  0  0  0
 29 74  1  0  0  0
 30 31  1  0  0  0
 30 75  1  0  0  0
 30 76  1  0  0  0
 31 32  1  0  0  0
 32 33  1  0  0  0
 32 77  1  0  0  0
 32 78  1  0  0  0
 33 79  1  0  0  0
 33 80  1  0  0  0
 34 35  1  0  0  0
 35 36  1  0  0  0
 35 81  1  0  0  0
 35 82  1  0  0  0
 36 37  1  0  0  0
 36 83  1  0  0  0
 36 84  1  0  0  0
 37 42  1  0  0  0
 37 38  1  0  0  0
 37 95  1  0  0  0
 38 39  1  0  0  0
 38 85  1  0  0  0
 38 86  1  0  0  0
 39 40  1  0  0  0
 39 87  1  0  0  0
 39 88  1  0  0  0
 40 41  1  0  0  0
 40 43  1  0  0  0
 40 89  1  0  0  0
 41 42  1  0  0  0
 41 90  1  0  0  0
 41 91  1  0  0  0
 42 92  1  0  0  0
 42 93  1  0  0  0
 44 45  1  0  0  0
 44 46  1  0  0  0
 44 47  1  0  0  0
M  CHG  2  15   1  37   1
M  END
> <i_epik_Tot_Q>
2

> <i_epik_Tot_abs_Q>
2

> <i_f3d_flags>
0

> <i_i_glide_confnum>
1040

> <i_i_glide_lignum>
24

> <i_i_glide_posenum>
31

> <i_i_glide_rotatable_bonds>
13

> <i_lp_mmshare_version>
63125

> <i_m_Source_File_Index>
22

> <i_m_source_file_index>
22

> <b_lp_Chiralities_Consistent>
1

> <b_m_subgroup_collapsed>
0

> <r_canvas_Affinity>
0.64

> <r_epik_Charging_Adjusted_Penalty>
0.135119144620326

> <r_epik_Ionization_Penalty>
  0.0711

> <r_epik_Ionization_Penalty_Charging>
  0.0709

> <r_epik_Ionization_Penalty_Neutral>
  0.0002

> <r_epik_State_Penalty>
  0.0642

> <r_i_docking_score>
-6.12633278703515

> <r_i_glide_ecoul>
-2.01379346847534

> <r_i_glide_eff_state_penalty>
0.0642

> <r_i_glide_einternal>
7.57183408737183

> <r_i_glide_emodel>
-65.6059482849545

> <r_i_glide_energy>
-35.1004557609558

> <r_i_glide_erotb>
0.378493727083951

> <r_i_glide_esite>
0

> <r_i_glide_evdw>
-33.0866622924805

> <r_i_glide_gscore>
-6.19053278703515

> <r_i_glide_hbond>
-0.0109611554266572

> <r_i_glide_ligand_efficiency>
-0.130347506107131

> <r_i_glide_ligand_efficiency_ln>
-1.26312295833536

> <r_i_glide_ligand_efficiency_sa>
-0.470401478916747

> <r_i_glide_lipo>
-3.32522274979592

> <r_i_glide_metal>
0

> <r_i_glide_rewards>
-1.2764404740012

> <r_i_glide_rmsd>
0.043217495858283

> <r_lp_Energy>
54.765178

> <r_lp_tautomer_probability>
1

> <s_epik_cmdline>
J2VwaWtfcHl0aG9uJywgJy1waHQnLCAnMC4wJywgJy1waCcsICc3LjAnLCAnLXRuJywgJzgnLCAnLW1hJywgJzUwMCcsICctaW1hZScsICc8aW5maWxlLm1hZT4nLCAnLW9tYWUnLCAnPG91dGZpbGUubWFlPic=

> <s_epik_input>
W0NIMl0xW0NIMl1bQ0hdKEYpW0NIMl1bQ0gyXU4xW0NIMl1bQ0gyXVNjMltjSF1jKFtjSF1bY0hdYzJDKEYpKEYpRiktYzNubihbQ0gyXVtDQEBIXShbT0hdKVtDSDJdTjRbQ0gyXVtDSDJdW0NIMl1bQ0gyXVtDSDJdNCljKGMzNSlbQ0gyXVtDSDJdTihbQ0gyXTUpQyg9TylONltDSDJdW0NIMl1PW0NIMl1bQ0gyXTY=

> <s_glide_core_atoms_lig>
5 4 3 44 45 46 47 2 1 6 7 11 10 9 8 22 23 24 25 12 13 21 14 15 20 19 18 17 16

> <s_glide_core_atoms_ref>
9 8 13 14 34 35 36 12 11 10 16 39 38 18 17 19 20 40 21 23 24 44 25 41 26 27 28 29 30

> <s_glide_core_constrain_type>
snapped_core_restrain

> <s_glide_core_smarts>
c1cc(C(F)(F)F)ccc1-c2nn(c(c23)CCNC3)CC(O)C[N]4CCCCC4

> <s_i_glide_gridfile>
glide-grid_1_zrqq

> <s_lp_Force_Field>
S-OPLS

> <s_lp_Variant>
CatS_162-1

> <s_m_Source_File>
glide-dock_SP_1_zrqq_gc4FEset_pv.maegz

> <s_m_Source_Path>
/gpfs/projects/drug_discovery/mergetbj/GRAILS/CatS/glide-dock_SP_1_zrqq_gc4FEset

> <s_m_entry_id>
812

> <s_m_entry_name>
CatS_FEset_compounds_D3R_GC4_answers.22

> <s_m_job_name>
glide-dock_SP_1_zrqq_gc4FEset

> <s_m_source_file>
ligprep_2.maegz

> <s_m_subgroup_title>
glide-dock_SP_1_zrqq_gc4FEset_pv

> <s_m_subgroupid>
glide-dock_SP_1_zrqq_gc4FEset_pv

$$$$
CatS_132
                    3D
 Schrodinger Suite 2023-3.
 91 96  0  0  1  0            999 V2000
  -13.3710    9.2279   -9.1040 C   0  0  0  0  0  0
  -11.9608    9.1033   -9.2696 C   0  0  0  0  0  0
  -11.4806    9.6949  -10.4158 C   0  0  0  0  0  0
  -12.7866   10.4674  -11.2865 S   0  0  0  0  0  0
  -13.9626    9.9341  -10.1158 C   0  0  0  0  0  0
  -10.1895    9.7405  -10.8552 N   0  0  0  0  0  0
   -9.1665    9.0937  -10.2769 C   0  0  0  0  0  0
   -9.1643    7.8579  -10.1384 O   0  0  0  0  0  0
   -8.2696    9.9050   -9.6795 N   0  0  0  0  0  0
   -7.9761   11.2743  -10.1889 C   0  0  0  0  0  0
   -6.4669   11.6271  -10.1354 C   0  0  0  0  0  0
   -5.7881   10.9215   -8.9857 C   0  0  0  0  0  0
   -6.3782   10.0363   -8.1591 C   0  0  0  0  0  0
   -5.3370    9.6130   -7.2694 C   0  0  0  0  0  0
   -4.1866   10.2079   -7.5771 N   0  0  0  0  0  0
   -4.4508   10.9938   -8.6465 N   0  0  0  0  0  0
   -3.3759   11.7066   -9.3039 C   0  0  0  0  0  0
   -3.1229   13.1393   -8.7860 C   0  0  2  0  0  0
   -2.6212   13.1984   -7.3217 C   0  0  0  0  0  0
   -2.4272   14.5846   -6.7962 N   0  3  0  0  0  0
   -1.4884   15.4336   -7.6015 C   0  0  0  0  0  0
   -1.3923   16.8633   -7.0349 C   0  0  0  0  0  0
   -0.9749   16.8554   -5.5566 C   0  0  0  0  0  0
   -1.9883   16.0024   -4.7721 C   0  0  0  0  0  0
   -2.0824   14.5766   -5.3428 C   0  0  0  0  0  0
   -4.2971   13.9173   -8.9164 O   0  0  0  0  0  0
   -5.4253    8.6618   -6.1655 C   0  0  0  0  0  0
   -4.3948    7.7426   -5.8898 C   0  0  0  0  0  0
   -4.5448    6.7749   -4.8785 C   0  0  0  0  0  0
   -5.7296    6.7061   -4.1074 C   0  0  0  0  0  0
   -6.7324    7.6835   -4.3328 C   0  0  0  0  0  0
   -6.5824    8.6343   -5.3590 C   0  0  0  0  0  0
   -8.2163    7.7076   -3.3760 S   0  0  0  0  0  0
   -8.8613    9.3887   -3.3070 C   0  0  0  0  0  0
   -8.0478   10.3016   -2.3672 C   0  0  0  0  0  0
   -8.7272   11.5798   -2.0406 N   0  3  2  0  0  0
   -7.8733   12.4448   -1.1885 C   0  0  0  0  0  0
   -8.5497   13.7911   -0.8915 C   0  0  0  0  0  0
   -9.9253   13.5860   -0.2444 C   0  0  2  0  0  0
  -10.7767   12.6769   -1.1235 C   0  0  0  0  0  0
  -10.0588   11.3653   -1.4152 C   0  0  0  0  0  0
  -10.5409   14.7633   -0.1035 F   0  0  0  0  0  0
   -5.9144    5.5775   -3.0963 C   0  0  0  0  0  0
   -4.8839    4.7358   -3.1113 F   0  0  0  0  0  0
   -6.0528    6.0585   -1.8589 F   0  0  0  0  0  0
   -6.9931    4.8657   -3.4033 F   0  0  0  0  0  0
   -7.8262    9.6354   -8.2888 C   0  0  0  0  0  0
  -13.8981    8.7976   -8.2647 H   0  0  0  0  0  0
  -11.3629    8.5746   -8.5464 H   0  0  0  0  0  0
  -15.0086   10.1661  -10.2541 H   0  0  0  0  0  0
   -9.9723   10.5736  -11.3868 H   0  0  0  0  0  0
   -8.3205   11.3965  -11.2169 H   0  0  0  0  0  0
   -8.5474   11.9753   -9.5902 H   0  0  0  0  0  0
   -5.9956   11.3332  -11.0725 H   0  0  0  0  0  0
   -6.3608   12.7043  -10.0526 H   0  0  0  0  0  0
   -2.4611   11.1179   -9.2132 H   0  0  0  0  0  0
   -3.5986   11.7397  -10.3758 H   0  0  0  0  0  0
   -2.3900   13.5889   -9.4523 H   0  0  0  0  0  0
   -3.3273   12.6746   -6.6772 H   0  0  0  0  0  0
   -1.6733   12.6460   -7.2521 H   0  0  0  0  0  0
   -0.4883   14.9752   -7.6097 H   0  0  0  0  0  0
   -1.8100   15.5076   -8.6377 H   0  0  0  0  0  0
   -0.6975   17.4648   -7.6199 H   0  0  0  0  0  0
   -2.3675   17.3545   -7.1240 H   0  0  0  0  0  0
   -0.9482   17.8757   -5.1678 H   0  0  0  0  0  0
    0.0302   16.4458   -5.4555 H   0  0  0  0  0  0
   -2.9771   16.4766   -4.8185 H   0  0  0  0  0  0
   -1.7185   15.9759   -3.7175 H   0  0  0  0  0  0
   -2.8283   14.0123   -4.7827 H   0  0  0  0  0  0
   -1.1239   14.0607   -5.1947 H   0  0  0  0  0  0
   -4.5329   13.9719   -9.8323 H   0  0  0  0  0  0
   -3.4910    7.7594   -6.4810 H   0  0  0  0  0  0
   -3.7489    6.0665   -4.7196 H   0  0  0  0  0  0
   -7.3625    9.3479   -5.5476 H   0  0  0  0  0  0
   -8.9567    9.8157   -4.3015 H   0  0  0  0  0  0
   -9.8924    9.2550   -2.9482 H   0  0  0  0  0  0
   -7.8418    9.7689   -1.4405 H   0  0  0  0  0  0
   -7.0796   10.5138   -2.8186 H   0  0  0  0  0  0
   -7.6688   11.9365   -0.2416 H   0  0  0  0  0  0
   -6.9082   12.6125   -1.6738 H   0  0  0  0  0  0
   -7.9209   14.3773   -0.2252 H   0  0  0  0  0  0
   -8.6462   14.3696   -1.8118 H   0  0  0  0  0  0
   -9.8290   13.1585    0.7589 H   0  0  0  0  0  0
  -11.0162   13.1787   -2.0623 H   0  0  0  0  0  0
  -11.7367   12.4756   -0.6393 H   0  0  0  0  0  0
  -10.7189   10.7985   -2.0824 H   0  0  0  0  0  0
   -9.9417   10.7803   -0.5065 H   0  0  0  0  0  0
   -8.4534   10.2028   -7.6208 H   0  0  0  0  0  0
   -7.9619    8.5853   -8.0381 H   0  0  0  0  0  0
   -3.3508   15.0241   -6.8850 H   0  0  0  0  0  0
   -8.8778   12.0780   -2.9058 H   0  0  0  0  0  0
  1  5  2  0  0  0
  1  2  1  0  0  0
  1 48  1  0  0  0
  2  3  2  0  0  0
  2 49  1  0  0  0
  3  4  1  0  0  0
  3  6  1  0  0  0
  4  5  1  0  0  0
  5 50  1  0  0  0
  6  7  1  0  0  0
  6 51  1  0  0  0
  7  8  2  0  0  0
  7  9  1  0  0  0
  9 47  1  0  0  0
  9 10  1  0  0  0
 10 11  1  0  0  0
 10 52  1  0  0  0
 10 53  1  0  0  0
 11 12  1  0  0  0
 11 54  1  0  0  0
 11 55  1  0  0  0
 12 16  1  0  0  0
 12 13  2  0  0  0
 13 14  1  0  0  0
 13 47  1  0  0  0
 14 15  2  0  0  0
 14 27  1  0  0  0
 15 16  1  0  0  0
 16 17  1  0  0  0
 17 18  1  0  0  0
 17 56  1  0  0  0
 17 57  1  0  0  0
 18 19  1  0  0  0
 18 26  1  0  0  0
 18 58  1  0  0  0
 19 20  1  0  0  0
 19 59  1  0  0  0
 19 60  1  0  0  0
 20 25  1  0  0  0
 20 21  1  0  0  0
 20 90  1  0  0  0
 21 22  1  0  0  0
 21 61  1  0  0  0
 21 62  1  0  0  0
 22 23  1  0  0  0
 22 63  1  0  0  0
 22 64  1  0  0  0
 23 24  1  0  0  0
 23 65  1  0  0  0
 23 66  1  0  0  0
 24 25  1  0  0  0
 24 67  1  0  0  0
 24 68  1  0  0  0
 25 69  1  0  0  0
 25 70  1  0  0  0
 26 71  1  0  0  0
 27 32  1  0  0  0
 27 28  2  0  0  0
 28 29  1  0  0  0
 28 72  1  0  0  0
 29 30  2  0  0  0
 29 73  1  0  0  0
 30 31  1  0  0  0
 30 43  1  0  0  0
 31 32  2  0  0  0
 31 33  1  0  0  0
 32 74  1  0  0  0
 33 34  1  0  0  0
 34 35  1  0  0  0
 34 75  1  0  0  0
 34 76  1  0  0  0
 35 36  1  0  0  0
 35 77  1  0  0  0
 35 78  1  0  0  0
 36 41  1  0  0  0
 36 37  1  0  0  0
 36 91  1  0  0  0
 37 38  1  0  0  0
 37 79  1  0  0  0
 37 80  1  0  0  0
 38 39  1  0  0  0
 38 81  1  0  0  0
 38 82  1  0  0  0
 39 40  1  0  0  0
 39 42  1  0  0  0
 39 83  1  0  0  0
 40 41  1  0  0  0
 40 84  1  0  0  0
 40 85  1  0  0  0
 41 86  1  0  0  0
 41 87  1  0  0  0
 43 44  1  0  0  0
 43 45  1  0  0  0
 43 46  1  0  0  0
 47 88  1  0  0  0
 47 89  1  0  0  0
M  CHG  2  20   1  36   1
M  END
> <i_epik_Tot_Q>
2

> <i_epik_Tot_abs_Q>
2

> <i_f3d_flags>
0

> <i_i_glide_confnum>
1621

> <i_i_glide_lignum>
15

> <i_i_glide_posenum>
194

> <i_i_glide_rotatable_bonds>
14

> <i_lp_mmshare_version>
63125

> <i_m_Source_File_Index>
13

> <i_m_source_file_index>
13

> <b_lp_Chiralities_Consistent>
1

> <b_m_subgroup_collapsed>
0

> <r_canvas_Affinity>
0.23

> <r_epik_Charging_Adjusted_Penalty>
0.135119144620326

> <r_epik_Ionization_Penalty>
  0.0711

> <r_epik_Ionization_Penalty_Charging>
  0.0709

> <r_epik_Ionization_Penalty_Neutral>
  0.0002

> <r_epik_State_Penalty>
  0.0642

> <r_i_docking_score>
-5.92522815392593

> <r_i_glide_ecoul>
-6.86412000656128

> <r_i_glide_eff_state_penalty>
0.0642

> <r_i_glide_einternal>
24.5865325927734

> <r_i_glide_emodel>
-57.4163305352156

> <r_i_glide_energy>
-54.4444880485535

> <r_i_glide_erotb>
0.399839667019716

> <r_i_glide_esite>
-0.0268908734909177

> <r_i_glide_evdw>
-47.5803680419922

> <r_i_glide_gscore>
-5.98942815392593

> <r_i_glide_hbond>
-0.0159948452424497

> <r_i_glide_ligand_efficiency>
-0.126068684126084

> <r_i_glide_ligand_efficiency_ln>
-1.2216593474056

> <r_i_glide_ligand_efficiency_sa>
-0.45495995457909

> <r_i_glide_lipo>
-3.55398591946347

> <r_i_glide_metal>
0

> <r_i_glide_rewards>
0.616240220334996

> <r_i_glide_rmsd>
0.0405622548854854

> <r_lp_Energy>
71.7687

> <r_lp_tautomer_probability>
1

> <s_epik_cmdline>
J2VwaWtfcHl0aG9uJywgJy1waHQnLCAnMC4wJywgJy1waCcsICc3LjAnLCAnLXRuJywgJzgnLCAnLW1hJywgJzUwMCcsICctaW1hZScsICc8aW5maWxlLm1hZT4nLCAnLW9tYWUnLCAnPG91dGZpbGUubWFlPic=

> <s_epik_input>
W0NIMl0xW0NIMl1bQ0gyXVtDSDJdW0NIMl1OMVtDSDJdW0NASF0oW09IXSlbQ0gyXW4ybmMoYyhjMjMpW0NIMl1OKFtDSDJdW0NIMl0zKUMoPU8pW05IXWM0W2NIXVtjSF1bY0hdczQpLWM1W2NIXVtjSF1jKEMoRikoRilGKWMoW2NIXTUpU1tDSDJdW0NIMl1ONltDSDJdW0NIMl1bQ0hdKEYpW0NIMl1bQ0gyXTY=

> <s_glide_core_atoms_lig>
32 31 30 43 44 45 46 29 28 27 14 15 16 12 13 11 10 9 47 17 18 26 19 20 25 24 23 22 21

> <s_glide_core_atoms_ref>
9 8 13 14 34 35 36 12 11 10 16 39 38 18 17 19 20 40 21 23 24 44 25 41 26 27 28 29 30

> <s_glide_core_constrain_type>
snapped_core_restrain

> <s_glide_core_smarts>
c1cc(C(F)(F)F)ccc1-c2nn(c(c23)CCNC3)CC(O)C[N]4CCCCC4

> <s_i_glide_gridfile>
glide-grid_1_zrqq

> <s_lp_Force_Field>
S-OPLS

> <s_lp_Variant>
CatS_132-1

> <s_m_Source_File>
glide-dock_SP_1_zrqq_gc4FEset_pv.maegz

> <s_m_Source_Path>
/gpfs/projects/drug_discovery/mergetbj/GRAILS/CatS/glide-dock_SP_1_zrqq_gc4FEset

> <s_m_entry_id>
813

> <s_m_entry_name>
CatS_FEset_compounds_D3R_GC4_answers.13

> <s_m_job_name>
glide-dock_SP_1_zrqq_gc4FEset

> <s_m_source_file>
ligprep_2.maegz

> <s_m_subgroup_title>
glide-dock_SP_1_zrqq_gc4FEset_pv

> <s_m_subgroupid>
glide-dock_SP_1_zrqq_gc4FEset_pv

$$$$
